                                  MODFLOW-2005     
      U.S. GEOLOGICAL SURVEY MODULAR FINITE-DIFFERENCE GROUND-WATER FLOW MODEL
                            VERSION 1.11.00 8/8/2013

 LIST FILE: supply2.lst
                         UNIT   10

 OPENING supply2.dis
 FILE TYPE:DIS   UNIT   11   STATUS:OLD    
 FORMAT:FORMATTED              ACCESS:SEQUENTIAL          

 OPENING supply2.ba6
 FILE TYPE:BAS6   UNIT   12   STATUS:OLD    
 FORMAT:FORMATTED              ACCESS:SEQUENTIAL          

 OPENING supply2.bc6
 FILE TYPE:BCF6   UNIT   13   STATUS:OLD    
 FORMAT:FORMATTED              ACCESS:SEQUENTIAL          

 OPENING supply2.rch
 FILE TYPE:RCH   UNIT   15   STATUS:OLD    
 FORMAT:FORMATTED              ACCESS:SEQUENTIAL          
#STR     16  supply2.str                                                                                                                                                                                                                                                                                    

 OPENING supply2.sfr
 FILE TYPE:SFR   UNIT   16   STATUS:OLD    
 FORMAT:FORMATTED              ACCESS:SEQUENTIAL          

 OPENING supply2.oc
 FILE TYPE:OC   UNIT   17   STATUS:OLD    
 FORMAT:FORMATTED              ACCESS:SEQUENTIAL          

 OPENING supply2.pcg
 FILE TYPE:PCG   UNIT   18   STATUS:OLD    
 FORMAT:FORMATTED              ACCESS:SEQUENTIAL          

 OPENING supply2.wel
 FILE TYPE:WEL   UNIT   20   STATUS:OLD    
 FORMAT:FORMATTED              ACCESS:SEQUENTIAL          
#GWM     19   supply2.gwm                                                                                                                                                                                                                                                                                   
#DATA    20   supply2.gwmwell                                                                                                                                                                                                                                                                               

 OPENING supply2.sfrout
 FILE TYPE:DATA   UNIT   81   STATUS:UNKNOWN
 FORMAT:FORMATTED              ACCESS:SEQUENTIAL          

 OPENING supply2.hds
 FILE TYPE:DATA   UNIT   51   STATUS:UNKNOWN
 FORMAT:FORMATTED              ACCESS:SEQUENTIAL          

 BAS -- BASIC PACKAGE, VERSION 7, 5/2/2005 INPUT READ FROM UNIT   12
 
 MODFLOW was compiled using mixed precision
 Precision of REAL variables:           6
 Precision of DOUBLE PRECISION variables:          15

 DISCRETIZATION INPUT DATA READ FROM UNIT   11
    1 LAYERS        25 ROWS        30 COLUMNS
   12 STRESS PERIOD(S) IN SIMULATION
 MODEL TIME UNIT IS DAYS
 MODEL LENGTH UNIT IS UNDEFINED
  Confining bed flag for each layer:
   0

                     DELR =   200.000    

                     DELC =   200.000    

 TOP ELEVATION OF LAYER 1 =  100.0000    

   MODEL LAYER BOTTOM EL. =   0.00000     FOR LAYER   1


 STRESS PERIOD     LENGTH       TIME STEPS     MULTIPLIER FOR DELT    SS FLAG
 ----------------------------------------------------------------------------
        1         92.00000          1                    1.500         TR
        2         91.00000          1                    1.500         TR
        3         91.00000          1                    1.500         TR
        4         91.00000          1                    1.500         TR
        5         92.00000          1                    1.500         TR
        6         91.00000          1                    1.500         TR
        7         91.00000          1                    1.500         TR
        8         91.00000          1                    1.500         TR
        9         92.00000          1                    1.500         TR
       10         91.00000          1                    1.500         TR
       11         91.00000          1                    1.500         TR
       12         91.00000          1                    1.500         TR

 TRANSIENT SIMULATION



 
 #MODOFC transient water supply sample problem                                   
 #                                                                               
 THE FREE FORMAT OPTION HAS BEEN SELECTED



                     BOUNDARY ARRAY FOR LAYER   1
 READING ON UNIT   12 WITH FORMAT: (20I4)              

 AQUIFER HEAD WILL BE SET TO   0.0000     AT ALL NO-FLOW NODES (IBOUND=0).



                       INITIAL HEAD FOR LAYER   1
 READING ON UNIT   12 WITH FORMAT: (10F13.0)           
 # Output control package file for MODFLOW, generated by Flopy.

 OUTPUT CONTROL IS SPECIFIED ONLY AT TIME STEPS FOR WHICH OUTPUT IS DESIRED
 HEADS WILL BE SAVED WITH FORMAT: (30E15.6)           
 SAVED HEADS WILL BE LABELED
 COMPACT CELL-BY-CELL BUDGET FILES WILL BE WRITTEN
 AUXILIARY DATA WILL BE SAVED IN CELL-BY-CELL BUDGET FILES
 HEAD PRINT FORMAT CODE IS   0    DRAWDOWN PRINT FORMAT CODE IS   0
 HEADS WILL BE SAVED ON UNIT   51    DRAWDOWNS WILL BE SAVED ON UNIT   52

 BCF -- BLOCK-CENTERED FLOW PACKAGE, VERSION 7, 5/2/2005
         INPUT READ FROM UNIT 13
 TRANSIENT SIMULATION
 HEAD AT CELLS THAT CONVERT TO DRY=   0.0000    
 WETTING CAPABILITY IS NOT ACTIVE
      LAYER  LAYER-TYPE CODE     INTERBLOCK T
      --------------------------------------------
         1            0          0 -- HARMONIC    

 COLUMN TO ROW ANISOTROPY =  1.000000    

     PRIMARY STORAGE COEF =  5.000000E-02 FOR LAYER   1

 OPENING FILE ON UNIT   99:
 tran.ref                                                                                                                                                                                                



               TRANSMIS. ALONG ROWS FOR LAYER   1
 READING ON UNIT   99 WITH FORMAT: (FREE)              

            1           2           3           4           5           6           7           8           9          10
           11          12          13          14          15          16          17          18          19          20
           21          22          23          24          25          26          27          28          29          30
 ........................................................................................................................
   1    5000.       5000.       5000.       5000.       5000.       5000.       5000.       5000.       5000.       5000.    
        5050.       5000.       5000.       5000.       5000.       5000.       5000.       5000.       5000.       5000.    
        5000.       5000.       5000.       5000.       5000.       5000.       5000.       5000.       5000.       5000.    
   2    5000.       5000.       5000.       5000.       5000.       5000.       5000.       5000.       5000.       5000.    
        5000.       5000.       5000.       5000.       5000.       5000.       5000.       5000.       5000.       5000.    
        5000.       5000.       5000.       5000.       5000.       5000.       5000.       5000.       5000.       5000.    
   3    5000.       5000.       5000.       5000.       5000.       5000.       5000.       5000.       5000.       5000.    
        5000.       5000.       5000.       5000.       5000.       5000.       5000.       5000.       5000.       5000.    
        5000.       5000.       5000.       5000.       5000.       5000.       5000.       5000.       5000.       5000.    
   4    5000.       5000.       5000.       5000.       5000.       5000.       5000.       5000.       5000.       5000.    
        5000.       5000.       5000.       5000.       5000.       5000.       5000.       5000.       5000.       5000.    
        5000.       5000.       5000.       5000.       5000.       5000.       5000.       5000.       5000.       5000.    
   5    5000.       5000.       5000.       5000.       5000.       5000.       5000.       5000.       5000.       5000.    
        5000.       5000.       5000.       5000.       5000.       5000.       5000.       5000.       5000.       5000.    
        5000.       5000.       5000.       5000.       5000.       5000.       5000.       5000.       5000.       5000.    
   6    5000.       5000.       5000.       5000.       5000.       5000.       5000.       5000.       5000.       5000.    
        5000.       5000.       5000.       5000.       5000.       5000.       5000.       5000.       5000.       5000.    
        5000.       5000.       5000.       5000.       5000.       5000.       5000.       5000.       5000.       5000.    
   7    5000.       5000.       5000.       5000.       5000.       5000.       5000.       5000.       5000.       5000.    
        5000.       5000.       5000.       5000.       5000.       5000.       5000.       5000.       5000.       5000.    
        5000.       5000.       5000.       5000.       5000.       5000.       5000.       5000.       5000.       5000.    
   8    5000.       5000.       5000.       5000.       5000.       5000.       5000.       5000.       5000.       5000.    
        5000.       5000.       5000.       5000.       5000.       5000.       5000.       5000.       5000.       5000.    
        5000.       5000.       5000.       5000.       5000.       5000.       5000.       5000.       5000.       5000.    
   9    5000.       5000.       5000.       5000.       5000.       5000.       5000.       5000.       5000.       5000.    
        5000.       5000.       5000.       5000.       5000.       5000.       5000.       5000.       5000.       5000.    
        5000.       5000.       5000.       5000.       5000.       5000.       5000.       5000.       5000.       5000.    
  10    5000.       5000.       5000.       5000.       5000.       5000.       5000.       5000.       5000.       5000.    
        5000.       5000.       5000.       5000.       5000.       5000.       5000.       5000.       5000.       5000.    
        5000.       5000.       5000.       5000.       5000.       5000.       5000.       5000.       5000.       5000.    
  11    5000.       5000.       5000.       5000.       5000.       5000.       5000.       5000.       5000.       5000.    
        5000.       5000.       5000.       5000.       5000.       5000.       5000.       5000.       5000.       5000.    
        5000.       5000.       5000.       5000.       5000.       5000.       5000.       5000.       5000.       5000.    
  12    5000.       5000.       5000.       5000.       5000.       5000.       5000.       5000.       5000.       5000.    
        5000.       5000.       5000.       5000.       5000.       5000.       5000.       5000.       5000.       5000.    
        5000.       5000.       5000.       5000.       5000.       5000.       5000.       5000.       5000.       5000.    
  13    5000.       5000.       5000.       5000.       5000.       5000.       5000.       5000.       5000.       5000.    
        5000.       5000.       5000.       5000.       5000.       5000.       5000.       5000.       5000.       5000.    
        5000.       5000.       5000.       5000.       5000.       5000.       5000.       5000.       5000.       5000.    
  14    5000.       5000.       5000.       5000.       5000.       5000.       5000.       5000.       5000.       5000.    
        5000.       5000.       5000.       5000.       5000.       5000.       5000.       5000.       5000.       5000.    
        5000.       5000.       5000.       5000.       5000.       5000.       5000.       5000.       5000.       5000.    
  15    5000.       5000.       5000.       5000.       5000.       5000.       5000.       5000.       5000.       5000.    
        5000.       5000.       5000.       5000.       5000.       5000.       5000.       5000.       5000.       5000.    
        5000.       5000.       5000.       5000.       5000.       5000.       5000.       5000.       5000.       5000.    
  16    5000.       5000.       5000.       5000.       5000.       5000.       5000.       5000.       5000.       5000.    
        5000.       5000.       5000.       5000.       5000.       5000.       5000.       5000.       5000.       5000.    
        5000.       5000.       5000.       5000.       5000.       5000.       5000.       5000.       5000.       5000.    
  17    5000.       5000.       5000.       5000.       5000.       5000.       5000.       5000.       5000.       5000.    
        5000.       5000.       5000.       5000.       5000.       5000.       5000.       5000.       5000.       5000.    
        5000.       5000.       5000.       5000.       5000.       5000.       5000.       5000.       5000.       5000.    
  18    5000.       5000.       5000.       5000.       5000.       5000.       5000.       5000.       5000.       5000.    
        5000.       5000.       5000.       5000.       5000.       5000.       5000.       5000.       5000.       5000.    
        5000.       5000.       5000.       5000.       5000.       5000.       5000.       5000.       5000.       5000.    
  19    5000.       5000.       5000.       5000.       5000.       5000.       5000.       5000.       5000.       5000.    
        5000.       5000.       5000.       5000.       5000.       5000.       5000.       5000.       5000.       5000.    
        5000.       5000.       5000.       5000.       5000.       5000.       5000.       5000.       5000.       5000.    
  20    5000.       5000.       5000.       5000.       5000.       5000.       5000.       5000.       5000.       5000.    
        5000.       5000.       5000.       5000.       5000.       5000.       5000.       5000.       5000.       5000.    
        5000.       5000.       5000.       5000.       5000.       5000.       5000.       5000.       5000.       5000.    
  21    5000.       5000.       5000.       5000.       5000.       5000.       5000.       5000.       5000.       5000.    
        5000.       5000.       5000.       5000.       5000.       5000.       5000.       5000.       5000.       5000.    
        5000.       5000.       5000.       5000.       5000.       5000.       5000.       5000.       5000.       5000.    
  22    5000.       5000.       5000.       5000.       5000.       5000.       5000.       5000.       5000.       5000.    
        5000.       5000.       5000.       5000.       5000.       5000.       5000.       5000.       5000.       5000.    
        5000.       5000.       5000.       5000.       5000.       5000.       5000.       5000.       5000.       5000.    
  23    5000.       5000.       5000.       5000.       5000.       5000.       5000.       5000.       5000.       5000.    
        5000.       5000.       5000.       5000.       5000.       5000.       5000.       5000.       5000.       5000.    
        5000.       5000.       5000.       5000.       5000.       5000.       5000.       5000.       5000.       5000.    
  24    5000.       5000.       5000.       5000.       5000.       5000.       5000.       5000.       5000.       5000.    
        5000.       5000.       5000.       5000.       5000.       5000.       5000.       5000.       5000.       5000.    
        5000.       5000.       5000.       5000.       5000.       5000.       5000.       5000.       5000.       5000.    
  25    5000.       5000.       5000.       5000.       5000.       5000.       5000.       5000.       5000.       5000.    
        5000.       5000.       5000.       5000.       5000.       5000.       5000.       5000.       5000.       5000.    
        5000.       5000.       5000.       5000.       5000.       5000.       5000.       5000.       5000.       5000.    

 WEL -- WELL PACKAGE, VERSION 7, 5/2/2005 INPUT READ FROM UNIT   20
 # Well file for MODFLOW, generated by Flopy.
 No named parameters
 MAXIMUM OF      4 ACTIVE WELLS AT ONE TIME


     0 Well parameters

 RCH -- RECHARGE PACKAGE, VERSION 7, 5/2/2005 INPUT READ FROM UNIT   15
 No named parameters
 OPTION 1 -- RECHARGE TO TOP LAYER


     0 Recharge parameters

 SFR7 -- STREAMFLOW ROUTING PACKAGE, VERSION 1.0.7, 2013-01-15
         INPUT READ FROM UNIT  16
 #SUPPLY2 Sample Problem, SFR file
 #March 2009
 No named parameters
 Segment information will not be 
 read by reach
 No named parameters
 No specifed inflow files


 NUMBER OF STREAM REACHES IS   40

 NUMBER OF STREAM SEGMENTS IS    3

 NUMBER OF STREAM PARAMETERS IS    0

 NUMBER OF STREAM SEGMENTS DEFINED USING PARAMETERS IS              0

 MAXIMUM ERROR FOR STREAM LEAKAGE RATES IS  1.00E-04

 CONSTANT FOR MANNINGS EQUATION IS  1.2839E+05



 STREAM OUTPUT WILL BE WRITTEN TO FILE ON UNIT   81


   STREAM NETWORK DESCRIPTION: 

   LAYER    ROW    COL   SEGMENT   REACH     LENGTH
                          NUMBER   NUMBER    IN CELL        
   --------------------------------------------------
      1     13      1       1        1    2.0000E+02
      1     13      2       1        2    2.0000E+02
      1     14      3       1        3    2.0000E+02
      1     15      4       1        4    2.0000E+02
      1     16      5       1        5    2.0000E+02
      1     16      6       1        6    2.0000E+02
      1     16      7       1        7    2.0000E+02
      1     16      8       1        8    2.0000E+02
      1     16      9       1        9    2.0000E+02
      1     16     10       1       10    2.0000E+02
      1     16     11       1       11    2.0000E+02
      1     16     12       1       12    2.0000E+02
      1     15     13       1       13    2.0000E+02
      1     14     14       1       14    2.0000E+02
      1     13     15       1       15    2.0000E+02
      1     12     16       1       16    2.0000E+02
      1     12     17       1       17    2.0000E+02
      1     12     18       1       18    2.0000E+02
      1     12     19       1       19    2.0000E+02
      1     13     20       1       20    2.0000E+02
      1     14     21       1       21    2.0000E+02
      1     14     22       1       22    2.0000E+02
      1      9     30       2        1    2.0000E+02
      1      9     29       2        2    2.0000E+02
      1      9     28       2        3    2.0000E+02
      1      9     27       2        4    2.0000E+02
      1     10     26       2        5    2.0000E+02
      1     11     25       2        6    2.0000E+02
      1     12     24       2        7    2.0000E+02
      1     13     23       2        8    2.0000E+02
      1     14     22       2        9    2.0000E+02
      1     14     22       3        1    2.0000E+02
      1     15     23       3        2    2.0000E+02
      1     15     24       3        3    2.0000E+02
      1     15     25       3        4    2.0000E+02
      1     15     26       3        5    2.0000E+02
      1     16     27       3        6    2.0000E+02
      1     17     28       3        7    2.0000E+02
      1     18     29       3        8    2.0000E+02
      1     18     30       3        9    2.0000E+02




 PCG -- CONJUGATE-GRADIENT SOLUTION PACKAGE, VERSION 7, 5/2/2005
 MAXIMUM OF    500 CALLS OF SOLUTION ROUTINE
 MAXIMUM OF      5 INTERNAL ITERATIONS PER CALL TO SOLUTION ROUTINE
 MATRIX PRECONDITIONING TYPE :    1



                                    SOLUTION BY THE CONJUGATE-GRADIENT METHOD
                                   -------------------------------------------
                    MAXIMUM NUMBER OF CALLS TO PCG ROUTINE =      500
                        MAXIMUM ITERATIONS PER CALL TO PCG =        5
                               MATRIX PRECONDITIONING TYPE =        1
        RELAXATION FACTOR (ONLY USED WITH PRECOND. TYPE 1) =    0.10000E+01
 PARAMETER OF POLYNOMIAL PRECOND. = 2 (2) OR IS CALCULATED :        0
                         HEAD CHANGE CRITERION FOR CLOSURE =    0.10000E-04
                     RESIDUAL CHANGE CRITERION FOR CLOSURE =    0.10000E+01
            PCG HEAD AND RESIDUAL CHANGE PRINTOUT INTERVAL =        1
     PRINTING FROM SOLVER IS LIMITED(1) OR SUPPRESSED (>1) =        1
                            STEADY-STATE DAMPING PARAMETER =    0.10000E+01
                               TRANSIENT DAMPING PARAMETER =    0.10000E+01
1
                            STRESS PERIOD NO.    1, LENGTH =   92.00000    
                            -----------------------------------------------

                              NUMBER OF TIME STEPS =     1

                               MULTIPLIER FOR DELT =     1.500

                            INITIAL TIME STEP SIZE =   92.00000    

 WELL NO.  LAYER   ROW   COL   STRESS RATE         
 --------------------------------------------------
      1      1     12     11       0.000    
      2      1     16     17     -0.2757E+05
      3      1     11     22       0.000    
      4      1     14     25       0.000    

      4 WELLS

                 RECHARGE =  5.000000E-04



 CLASSIFICATION & COUNT OF STREAM SEGMENTS BASED ON SOURCE OF INFLOW:

                HEADWATER     DIVERSION     RECEIVES TRIBUTARY FLOW
                ---------     ---------     -----------------------
                     2              0               1



                    INPUT DATA FOR EACH STREAM SEGMENT
 ---------------------------------------------------------------------------------------------

 SEGMENT    SEG.     INFLOW   OVERLAND   STREAM    STREAM   ICALC  OUTFLOW  DIVERSION PRIORITY
    NO.    LENGTH     RATE     RUNOFF      ET       PPT.    METH.  TO SEG.  FROM SEG.    NO.

      1  4.400E+03 1.000E+05 0.000E+00 0.000E+00 0.000E+00    1        3        0        0
      2  1.800E+03 5.000E+04 0.000E+00 0.000E+00 0.000E+00    1        3        0        0
      3  1.800E+03 0.000E+00 0.000E+00 0.000E+00 0.000E+00    1        0        0        0


         STREAMBED PROPERTIES AND STREAM DIMENSIONS

 SEGMENT     BED HYD. COND.      BED THICKNESS     ELEV.-TOP OF BED     WIDTH OF STREAM     DEPTH OF STREAM    STREAM ROUGHNESS
    No.     UPPER     LOWER     UPPER     LOWER     UPPER     LOWER     UPPER     LOWER     UPPER     LOWER   CHANNEL      BANK

     1  5.000E+00 5.000E+00 1.000E+00 1.000E+00 4.850E+01 3.800E+01 2.000E+01 2.000E+01                     5.000E-02
     2  5.000E+00 5.000E+00 1.000E+00 1.000E+00 4.025E+01 3.800E+01 2.000E+01 2.000E+01                     5.000E-02
     3  5.000E+00 5.000E+00 1.000E+00 1.000E+00 3.800E+01 3.000E+01 2.000E+01 2.000E+01                     5.000E-02



 
 SOLVING FOR HEAD 


     7 CALLS TO PCG ROUTINE FOR TIME STEP   1 IN STRESS PERIOD    1
    28 TOTAL ITERATIONS

 OUTPUT CONTROL FOR STRESS PERIOD    1   TIME STEP    1
    SAVE HEAD FOR ALL LAYERS
    SAVE BUDGET



 STREAM LISTING     PERIOD      1   STEP        1

 LAYER ROW COL. STREAM  RCH.  FLOW INTO     FLOW TO   FLOW OUT OF   OVRLND.     DIRECT     STREAM       STREAM     STREAM     STREAM   STREAMBED  STREAMBED
                SEG.NO.  NO.  STRM. RCH.    AQUIFER    STRM. RCH.    RUNOFF     PRECIP       ET          HEAD       DEPTH      WIDTH   CONDCTNC.   GRADIENT

   1   13    1     1     1    1.0000E+05 -3.1680E+04   1.3168E+05  0.000E+00  0.000E+00  0.000E+00  4.84194E+01  1.580E-01  2.000E+01  2.000E+04 -1.584E+00
   1   13    2     1     2    1.3168E+05 -4.2145E+04   1.7382E+05  0.000E+00  0.000E+00  0.000E+00  4.79706E+01  1.865E-01  2.000E+01  2.000E+04 -2.107E+00
   1   14    3     1     3    1.7382E+05 -3.7676E+04   2.1150E+05  0.000E+00  0.000E+00  0.000E+00  4.75212E+01  2.144E-01  2.000E+01  2.000E+04 -1.884E+00
   1   15    4     1     4    2.1150E+05 -3.6719E+04   2.4822E+05  0.000E+00  0.000E+00  0.000E+00  4.70679E+01  2.383E-01  2.000E+01  2.000E+04 -1.836E+00
   1   16    5     1     5    2.4822E+05 -3.7638E+04   2.8586E+05  0.000E+00  0.000E+00  0.000E+00  4.66130E+01  2.608E-01  2.000E+01  2.000E+04 -1.882E+00
   1   16    6     1     6    2.8586E+05 -3.2904E+04   3.1876E+05  0.000E+00  0.000E+00  0.000E+00  4.61559E+01  2.809E-01  2.000E+01  2.000E+04 -1.645E+00
   1   16    7     1     7    3.1876E+05 -3.2699E+04   3.5146E+05  0.000E+00  0.000E+00  0.000E+00  4.56966E+01  2.988E-01  2.000E+01  2.000E+04 -1.635E+00
   1   16    8     1     8    3.5146E+05 -3.2877E+04   3.8434E+05  0.000E+00  0.000E+00  0.000E+00  4.52365E+01  3.161E-01  2.000E+01  2.000E+04 -1.644E+00
   1   16    9     1     9    3.8434E+05 -3.2917E+04   4.1726E+05  0.000E+00  0.000E+00  0.000E+00  4.47759E+01  3.327E-01  2.000E+01  2.000E+04 -1.646E+00
   1   16   10     1    10    4.1726E+05 -3.2846E+04   4.5010E+05  0.000E+00  0.000E+00  0.000E+00  4.43147E+01  3.488E-01  2.000E+01  2.000E+04 -1.642E+00
   1   16   11     1    11    4.5010E+05 -3.3281E+04   4.8338E+05  0.000E+00  0.000E+00  0.000E+00  4.38532E+01  3.646E-01  2.000E+01  2.000E+04 -1.664E+00
   1   16   12     1    12    4.8338E+05 -3.8663E+04   5.2205E+05  0.000E+00  0.000E+00  0.000E+00  4.33925E+01  3.812E-01  2.000E+01  2.000E+04 -1.933E+00
   1   15   13     1    13    5.2205E+05 -3.7506E+04   5.5955E+05  0.000E+00  0.000E+00  0.000E+00  4.29323E+01  3.982E-01  2.000E+01  2.000E+04 -1.875E+00
   1   14   14     1    14    5.5955E+05 -3.7944E+04   5.9750E+05  0.000E+00  0.000E+00  0.000E+00  4.24715E+01  4.147E-01  2.000E+01  2.000E+04 -1.897E+00
   1   13   15     1    15    5.9750E+05 -4.0286E+04   6.3778E+05  0.000E+00  0.000E+00  0.000E+00  4.20108E+01  4.313E-01  2.000E+01  2.000E+04 -2.014E+00
   1   12   16     1    16    6.3778E+05 -4.6868E+04   6.8465E+05  0.000E+00  0.000E+00  0.000E+00  4.15516E+01  4.493E-01  2.000E+01  2.000E+04 -2.343E+00
   1   12   17     1    17    6.8465E+05 -3.6449E+04   7.2110E+05  0.000E+00  0.000E+00  0.000E+00  4.10911E+01  4.661E-01  2.000E+01  2.000E+04 -1.822E+00
   1   12   18     1    18    7.2110E+05 -3.4809E+04   7.5591E+05  0.000E+00  0.000E+00  0.000E+00  4.06278E+01  4.801E-01  2.000E+01  2.000E+04 -1.740E+00
   1   12   19     1    19    7.5591E+05 -3.9517E+04   7.9543E+05  0.000E+00  0.000E+00  0.000E+00  4.01649E+01  4.945E-01  2.000E+01  2.000E+04 -1.976E+00
   1   13   20     1    20    7.9543E+05 -2.9159E+04   8.2459E+05  0.000E+00  0.000E+00  0.000E+00  3.97007E+01  5.075E-01  2.000E+01  2.000E+04 -1.458E+00
   1   14   21     1    21    8.2459E+05 -2.1518E+04   8.4610E+05  0.000E+00  0.000E+00  0.000E+00  3.92329E+01  5.169E-01  2.000E+01  2.000E+04 -1.076E+00
   1   14   22     1    22    8.4610E+05 -2.7018E+03   8.4880E+05  0.000E+00  0.000E+00  0.000E+00  3.87601E+01  5.214E-01  2.000E+01  2.000E+04 -1.351E-01
   1    9   30     2     1    5.0000E+04 -2.9667E+04   7.9667E+04  0.000E+00  0.000E+00  0.000E+00  4.02604E+01  1.354E-01  2.000E+01  2.000E+04 -1.483E+00
   1    9   29     2     2    7.9667E+04 -3.2107E+04   1.1177E+05  0.000E+00  0.000E+00  0.000E+00  4.00461E+01  1.711E-01  2.000E+01  2.000E+04 -1.605E+00
   1    9   28     2     3    1.1177E+05 -3.6430E+04   1.4820E+05  0.000E+00  0.000E+00  0.000E+00  3.98306E+01  2.055E-01  2.000E+01  2.000E+04 -1.821E+00
   1    9   27     2     4    1.4820E+05 -5.1063E+04   1.9927E+05  0.000E+00  0.000E+00  0.000E+00  3.96196E+01  2.446E-01  2.000E+01  2.000E+04 -2.553E+00
   1   10   26     2     5    1.9927E+05 -3.7467E+04   2.3674E+05  0.000E+00  0.000E+00  0.000E+00  3.94053E+01  2.803E-01  2.000E+01  2.000E+04 -1.873E+00
   1   11   25     2     6    2.3674E+05 -2.9065E+04   2.6580E+05  0.000E+00  0.000E+00  0.000E+00  3.91802E+01  3.052E-01  2.000E+01  2.000E+04 -1.453E+00
   1   12   24     2     7    2.6580E+05 -2.2077E+04   2.8788E+05  0.000E+00  0.000E+00  0.000E+00  3.89485E+01  3.235E-01  2.000E+01  2.000E+04 -1.104E+00
   1   13   23     2     8    2.8788E+05 -1.5957E+04   3.0383E+05  0.000E+00  0.000E+00  0.000E+00  3.87117E+01  3.367E-01  2.000E+01  2.000E+04 -7.979E-01
   1   14   22     2     9    3.0383E+05 -8.5038E+03   3.1234E+05  0.000E+00  0.000E+00  0.000E+00  3.84700E+01  3.450E-01  2.000E+01  2.000E+04 -4.252E-01
   1   14   22     3     1    1.1611E+06 -1.6295E+04   1.1774E+06  0.000E+00  0.000E+00  0.000E+00  3.80804E+01  5.249E-01  2.000E+01  2.000E+04 -8.147E-01
   1   15   23     3     2    1.1774E+06 -2.5984E+04   1.2034E+06  0.000E+00  0.000E+00  0.000E+00  3.71972E+01  5.305E-01  2.000E+01  2.000E+04 -1.299E+00
   1   15   24     3     3    1.2034E+06 -2.2037E+04   1.2255E+06  0.000E+00  0.000E+00  0.000E+00  3.63147E+01  5.369E-01  2.000E+01  2.000E+04 -1.102E+00
   1   15   25     3     4    1.2255E+06 -2.1910E+04   1.2474E+06  0.000E+00  0.000E+00  0.000E+00  3.54316E+01  5.427E-01  2.000E+01  2.000E+04 -1.095E+00
   1   15   26     3     5    1.2474E+06 -2.5414E+04   1.2728E+06  0.000E+00  0.000E+00  0.000E+00  3.45490E+01  5.490E-01  2.000E+01  2.000E+04 -1.271E+00
   1   16   27     3     6    1.2728E+06 -3.3095E+04   1.3059E+06  0.000E+00  0.000E+00  0.000E+00  3.36677E+01  5.566E-01  2.000E+01  2.000E+04 -1.655E+00
   1   17   28     3     7    1.3059E+06 -4.0122E+04   1.3460E+06  0.000E+00  0.000E+00  0.000E+00  3.27882E+01  5.660E-01  2.000E+01  2.000E+04 -2.006E+00
   1   18   29     3     8    1.3460E+06 -5.0597E+04   1.3966E+06  0.000E+00  0.000E+00  0.000E+00  3.19109E+01  5.775E-01  2.000E+01  2.000E+04 -2.530E+00
   1   18   30     3     9    1.3966E+06 -4.6645E+04   1.4432E+06  0.000E+00  0.000E+00  0.000E+00  3.10342E+01  5.897E-01  2.000E+01  2.000E+04 -2.332E+00




 HEAD WILL BE SAVED ON UNIT   51 AT END OF TIME STEP    1, STRESS PERIOD    1
1
  VOLUMETRIC BUDGET FOR ENTIRE MODEL AT END OF TIME STEP    1, STRESS PERIOD   1
  ------------------------------------------------------------------------------

     CUMULATIVE VOLUMES      L**3       RATES FOR THIS TIME STEP      L**3/T
     ------------------                 ------------------------

           IN:                                      IN:
           ---                                      ---
             STORAGE =    18986998.0000               STORAGE =      206380.4062
       CONSTANT HEAD =   101257600.0000         CONSTANT HEAD =     1100626.1250
               WELLS =           0.0000                 WELLS =           0.0000
            RECHARGE =     1269600.0000              RECHARGE =       13800.0000
      STREAM LEAKAGE =           0.0000        STREAM LEAKAGE =           0.0000

            TOTAL IN =   121514200.0000              TOTAL IN =     1320806.5000

          OUT:                                     OUT:
          ----                                     ----
             STORAGE =           0.0000               STORAGE =           0.0000
       CONSTANT HEAD =           0.0000         CONSTANT HEAD =           0.0000
               WELLS =     2536125.7500                 WELLS =       27566.5840
            RECHARGE =           0.0000              RECHARGE =           0.0000
      STREAM LEAKAGE =   118978240.0000        STREAM LEAKAGE =     1293241.7500

           TOTAL OUT =   121514368.0000             TOTAL OUT =     1320808.3750

            IN - OUT =        -168.0000              IN - OUT =          -1.8750

 PERCENT DISCREPANCY =          -0.00     PERCENT DISCREPANCY =          -0.00






         TIME SUMMARY AT END OF TIME STEP    1 IN STRESS PERIOD    1
                    SECONDS     MINUTES      HOURS       DAYS        YEARS
                    -----------------------------------------------------------
   TIME STEP LENGTH 7.94880E+06 1.32480E+05  2208.0      92.000     0.25188    
 STRESS PERIOD TIME 7.94880E+06 1.32480E+05  2208.0      92.000     0.25188    
         TOTAL TIME 7.94880E+06 1.32480E+05  2208.0      92.000     0.25188    
1
1
                            STRESS PERIOD NO.    2, LENGTH =   91.00000    
                            -----------------------------------------------

                              NUMBER OF TIME STEPS =     1

                               MULTIPLIER FOR DELT =     1.500

                            INITIAL TIME STEP SIZE =   91.00000    

 WELL NO.  LAYER   ROW   COL   STRESS RATE         
 --------------------------------------------------
      1      1     12     11       0.000    
      2      1     16     17     -0.2965E+05
      3      1     11     22       0.000    
      4      1     14     25     -0.4934E+05

      4 WELLS

                 RECHARGE =  2.000000E-03

 REUSING STREAM SEGMENT DATA FROM LAST STRESS PERIOD
 
 SOLVING FOR HEAD 


     6 CALLS TO PCG ROUTINE FOR TIME STEP   1 IN STRESS PERIOD    2
    22 TOTAL ITERATIONS

 OUTPUT CONTROL FOR STRESS PERIOD    2   TIME STEP    1
    SAVE HEAD FOR ALL LAYERS
    SAVE BUDGET



 STREAM LISTING     PERIOD      2   STEP        1

 LAYER ROW COL. STREAM  RCH.  FLOW INTO     FLOW TO   FLOW OUT OF   OVRLND.     DIRECT     STREAM       STREAM     STREAM     STREAM   STREAMBED  STREAMBED
                SEG.NO.  NO.  STRM. RCH.    AQUIFER    STRM. RCH.    RUNOFF     PRECIP       ET          HEAD       DEPTH      WIDTH   CONDCTNC.   GRADIENT

   1   13    1     1     1    1.0000E+05 -2.8538E+04   1.2854E+05  0.000E+00  0.000E+00  0.000E+00  4.84181E+01  1.567E-01  2.000E+01  2.000E+04 -1.427E+00
   1   13    2     1     2    1.2854E+05 -3.8429E+04   1.6697E+05  0.000E+00  0.000E+00  0.000E+00  4.79669E+01  1.828E-01  2.000E+01  2.000E+04 -1.921E+00
   1   14    3     1     3    1.6697E+05 -3.3860E+04   2.0083E+05  0.000E+00  0.000E+00  0.000E+00  4.75153E+01  2.085E-01  2.000E+01  2.000E+04 -1.693E+00
   1   15    4     1     4    2.0083E+05 -3.3040E+04   2.3387E+05  0.000E+00  0.000E+00  0.000E+00  4.70600E+01  2.305E-01  2.000E+01  2.000E+04 -1.652E+00
   1   16    5     1     5    2.3387E+05 -3.4447E+04   2.6831E+05  0.000E+00  0.000E+00  0.000E+00  4.66036E+01  2.513E-01  2.000E+01  2.000E+04 -1.722E+00
   1   16    6     1     6    2.6831E+05 -3.0087E+04   2.9840E+05  0.000E+00  0.000E+00  0.000E+00  4.61452E+01  2.702E-01  2.000E+01  2.000E+04 -1.504E+00
   1   16    7     1     7    2.9840E+05 -2.9886E+04   3.2829E+05  0.000E+00  0.000E+00  0.000E+00  4.56848E+01  2.870E-01  2.000E+01  2.000E+04 -1.494E+00
   1   16    8     1     8    3.2829E+05 -3.0037E+04   3.5832E+05  0.000E+00  0.000E+00  0.000E+00  4.52237E+01  3.032E-01  2.000E+01  2.000E+04 -1.502E+00
   1   16    9     1     9    3.5832E+05 -3.0056E+04   3.8838E+05  0.000E+00  0.000E+00  0.000E+00  4.47620E+01  3.189E-01  2.000E+01  2.000E+04 -1.503E+00
   1   16   10     1    10    3.8838E+05 -2.9969E+04   4.1835E+05  0.000E+00  0.000E+00  0.000E+00  4.42999E+01  3.340E-01  2.000E+01  2.000E+04 -1.498E+00
   1   16   11     1    11    4.1835E+05 -3.0334E+04   4.4868E+05  0.000E+00  0.000E+00  0.000E+00  4.38374E+01  3.488E-01  2.000E+01  2.000E+04 -1.517E+00
   1   16   12     1    12    4.4868E+05 -3.5182E+04   4.8387E+05  0.000E+00  0.000E+00  0.000E+00  4.33757E+01  3.643E-01  2.000E+01  2.000E+04 -1.759E+00
   1   15   13     1    13    4.8387E+05 -3.3425E+04   5.1729E+05  0.000E+00  0.000E+00  0.000E+00  4.29143E+01  3.802E-01  2.000E+01  2.000E+04 -1.671E+00
   1   14   14     1    14    5.1729E+05 -3.3629E+04   5.5092E+05  0.000E+00  0.000E+00  0.000E+00  4.24521E+01  3.953E-01  2.000E+01  2.000E+04 -1.681E+00
   1   13   15     1    15    5.5092E+05 -3.6024E+04   5.8695E+05  0.000E+00  0.000E+00  0.000E+00  4.19901E+01  4.105E-01  2.000E+01  2.000E+04 -1.801E+00
   1   12   16     1    16    5.8695E+05 -4.2976E+04   6.2992E+05  0.000E+00  0.000E+00  0.000E+00  4.15297E+01  4.274E-01  2.000E+01  2.000E+04 -2.149E+00
   1   12   17     1    17    6.2992E+05 -3.3154E+04   6.6308E+05  0.000E+00  0.000E+00  0.000E+00  4.10683E+01  4.433E-01  2.000E+01  2.000E+04 -1.658E+00
   1   12   18     1    18    6.6308E+05 -3.1587E+04   6.9466E+05  0.000E+00  0.000E+00  0.000E+00  4.06042E+01  4.565E-01  2.000E+01  2.000E+04 -1.579E+00
   1   12   19     1    19    6.9466E+05 -3.5936E+04   7.3060E+05  0.000E+00  0.000E+00  0.000E+00  4.01404E+01  4.699E-01  2.000E+01  2.000E+04 -1.797E+00
   1   13   20     1    20    7.3060E+05 -2.5462E+04   7.5606E+05  0.000E+00  0.000E+00  0.000E+00  3.96752E+01  4.820E-01  2.000E+01  2.000E+04 -1.273E+00
   1   14   21     1    21    7.5606E+05 -1.8198E+04   7.7426E+05  0.000E+00  0.000E+00  0.000E+00  3.92063E+01  4.904E-01  2.000E+01  2.000E+04 -9.099E-01
   1   14   22     1    22    7.7426E+05 -8.0852E+02   7.7507E+05  0.000E+00  0.000E+00  0.000E+00  3.87327E+01  4.941E-01  2.000E+01  2.000E+04 -4.043E-02
   1    9   30     2     1    5.0000E+04 -2.6508E+04   7.6508E+04  0.000E+00  0.000E+00  0.000E+00  4.02584E+01  1.334E-01  2.000E+01  2.000E+04 -1.325E+00
   1    9   29     2     2    7.6508E+04 -2.8952E+04   1.0546E+05  0.000E+00  0.000E+00  0.000E+00  4.00409E+01  1.659E-01  2.000E+01  2.000E+04 -1.448E+00
   1    9   28     2     3    1.0546E+05 -3.3219E+04   1.3868E+05  0.000E+00  0.000E+00  0.000E+00  3.98229E+01  1.979E-01  2.000E+01  2.000E+04 -1.661E+00
   1    9   27     2     4    1.3868E+05 -4.7399E+04   1.8608E+05  0.000E+00  0.000E+00  0.000E+00  3.96099E+01  2.349E-01  2.000E+01  2.000E+04 -2.370E+00
   1   10   26     2     5    1.8608E+05 -3.2587E+04   2.1867E+05  0.000E+00  0.000E+00  0.000E+00  3.93931E+01  2.681E-01  2.000E+01  2.000E+04 -1.629E+00
   1   11   25     2     6    2.1867E+05 -2.2728E+04   2.4139E+05  0.000E+00  0.000E+00  0.000E+00  3.91645E+01  2.895E-01  2.000E+01  2.000E+04 -1.136E+00
   1   12   24     2     7    2.4139E+05 -1.4619E+04   2.5601E+05  0.000E+00  0.000E+00  0.000E+00  3.89284E+01  3.034E-01  2.000E+01  2.000E+04 -7.309E-01
   1   13   23     2     8    2.5601E+05 -9.8097E+03   2.6582E+05  0.000E+00  0.000E+00  0.000E+00  3.86872E+01  3.122E-01  2.000E+01  2.000E+04 -4.905E-01
   1   14   22     2     9    2.6582E+05 -6.6010E+03   2.7242E+05  0.000E+00  0.000E+00  0.000E+00  3.84431E+01  3.181E-01  2.000E+01  2.000E+04 -3.301E-01
   1   14   22     3     1    1.0475E+06 -1.4484E+04   1.0620E+06  0.000E+00  0.000E+00  0.000E+00  3.80489E+01  4.934E-01  2.000E+01  2.000E+04 -7.242E-01
   1   15   23     3     2    1.0620E+06 -2.1155E+04   1.0831E+06  0.000E+00  0.000E+00  0.000E+00  3.71650E+01  4.984E-01  2.000E+01  2.000E+04 -1.058E+00
   1   15   24     3     3    1.0831E+06 -1.4278E+04   1.0974E+06  0.000E+00  0.000E+00  0.000E+00  3.62811E+01  5.033E-01  2.000E+01  2.000E+04 -7.139E-01
   1   15   25     3     4    1.0974E+06 -8.0615E+03   1.1055E+06  0.000E+00  0.000E+00  0.000E+00  3.53953E+01  5.064E-01  2.000E+01  2.000E+04 -4.031E-01
   1   15   26     3     5    1.1055E+06 -1.5845E+04   1.1213E+06  0.000E+00  0.000E+00  0.000E+00  3.45097E+01  5.097E-01  2.000E+01  2.000E+04 -7.923E-01
   1   16   27     3     6    1.1213E+06 -2.7503E+04   1.1488E+06  0.000E+00  0.000E+00  0.000E+00  3.36267E+01  5.156E-01  2.000E+01  2.000E+04 -1.375E+00
   1   17   28     3     7    1.1488E+06 -3.5759E+04   1.1846E+06  0.000E+00  0.000E+00  0.000E+00  3.27464E+01  5.242E-01  2.000E+01  2.000E+04 -1.788E+00
   1   18   29     3     8    1.1846E+06 -4.7264E+04   1.2318E+06  0.000E+00  0.000E+00  0.000E+00  3.18686E+01  5.353E-01  2.000E+01  2.000E+04 -2.363E+00
   1   18   30     3     9    1.2318E+06 -4.3708E+04   1.2755E+06  0.000E+00  0.000E+00  0.000E+00  3.09917E+01  5.473E-01  2.000E+01  2.000E+04 -2.185E+00




 HEAD WILL BE SAVED ON UNIT   51 AT END OF TIME STEP    1, STRESS PERIOD    2
1
  VOLUMETRIC BUDGET FOR ENTIRE MODEL AT END OF TIME STEP    1, STRESS PERIOD   2
  ------------------------------------------------------------------------------

     CUMULATIVE VOLUMES      L**3       RATES FOR THIS TIME STEP      L**3/T
     ------------------                 ------------------------

           IN:                                      IN:
           ---                                      ---
             STORAGE =    19735868.0000               STORAGE =        8229.3496
       CONSTANT HEAD =   205098592.0000         CONSTANT HEAD =     1141109.8750
               WELLS =           0.0000                 WELLS =           0.0000
            RECHARGE =     6292800.0000              RECHARGE =       55200.0000
      STREAM LEAKAGE =           0.0000        STREAM LEAKAGE =           0.0000

            TOTAL IN =   231127264.0000              TOTAL IN =     1204539.2500

          OUT:                                     OUT:
          ----                                     ----
             STORAGE =           0.0000               STORAGE =           0.0000
       CONSTANT HEAD =           0.0000         CONSTANT HEAD =           0.0000
               WELLS =     9724239.0000                 WELLS =       78990.2500
            RECHARGE =           0.0000              RECHARGE =           0.0000
      STREAM LEAKAGE =   221403152.0000        STREAM LEAKAGE =     1125548.5000

           TOTAL OUT =   231127392.0000             TOTAL OUT =     1204538.7500

            IN - OUT =        -128.0000              IN - OUT =           0.5000

 PERCENT DISCREPANCY =          -0.00     PERCENT DISCREPANCY =           0.00






         TIME SUMMARY AT END OF TIME STEP    1 IN STRESS PERIOD    2
                    SECONDS     MINUTES      HOURS       DAYS        YEARS
                    -----------------------------------------------------------
   TIME STEP LENGTH 7.86240E+06 1.31040E+05  2184.0      91.000     0.24914    
 STRESS PERIOD TIME 7.86240E+06 1.31040E+05  2184.0      91.000     0.24914    
         TOTAL TIME 1.58112E+07 2.63520E+05  4392.0      183.00     0.50103    
1
1
                            STRESS PERIOD NO.    3, LENGTH =   91.00000    
                            -----------------------------------------------

                              NUMBER OF TIME STEPS =     1

                               MULTIPLIER FOR DELT =     1.500

                            INITIAL TIME STEP SIZE =   91.00000    

 WELL NO.  LAYER   ROW   COL   STRESS RATE         
 --------------------------------------------------
      1      1     12     11       0.000    
      2      1     16     17     -0.1857E+05
      3      1     11     22       0.000    
      4      1     14     25       0.000    

      4 WELLS

                 RECHARGE =   0.00000    

 REUSING STREAM SEGMENT DATA FROM LAST STRESS PERIOD
 
 SOLVING FOR HEAD 


     5 CALLS TO PCG ROUTINE FOR TIME STEP   1 IN STRESS PERIOD    3
    18 TOTAL ITERATIONS

 OUTPUT CONTROL FOR STRESS PERIOD    3   TIME STEP    1
    SAVE HEAD FOR ALL LAYERS
    SAVE BUDGET



 STREAM LISTING     PERIOD      3   STEP        1

 LAYER ROW COL. STREAM  RCH.  FLOW INTO     FLOW TO   FLOW OUT OF   OVRLND.     DIRECT     STREAM       STREAM     STREAM     STREAM   STREAMBED  STREAMBED
                SEG.NO.  NO.  STRM. RCH.    AQUIFER    STRM. RCH.    RUNOFF     PRECIP       ET          HEAD       DEPTH      WIDTH   CONDCTNC.   GRADIENT

   1   13    1     1     1    1.0000E+05 -2.7515E+04   1.2752E+05  0.000E+00  0.000E+00  0.000E+00  4.84176E+01  1.563E-01  2.000E+01  2.000E+04 -1.376E+00
   1   13    2     1     2    1.2752E+05 -3.7200E+04   1.6472E+05  0.000E+00  0.000E+00  0.000E+00  4.79657E+01  1.816E-01  2.000E+01  2.000E+04 -1.860E+00
   1   14    3     1     3    1.6472E+05 -3.2675E+04   1.9739E+05  0.000E+00  0.000E+00  0.000E+00  4.75134E+01  2.065E-01  2.000E+01  2.000E+04 -1.634E+00
   1   15    4     1     4    1.9739E+05 -3.1915E+04   2.2930E+05  0.000E+00  0.000E+00  0.000E+00  4.70575E+01  2.279E-01  2.000E+01  2.000E+04 -1.596E+00
   1   16    5     1     5    2.2930E+05 -3.3453E+04   2.6276E+05  0.000E+00  0.000E+00  0.000E+00  4.66005E+01  2.483E-01  2.000E+01  2.000E+04 -1.673E+00
   1   16    6     1     6    2.6276E+05 -2.9227E+04   2.9199E+05  0.000E+00  0.000E+00  0.000E+00  4.61418E+01  2.668E-01  2.000E+01  2.000E+04 -1.461E+00
   1   16    7     1     7    2.9199E+05 -2.9044E+04   3.2103E+05  0.000E+00  0.000E+00  0.000E+00  4.56810E+01  2.833E-01  2.000E+01  2.000E+04 -1.452E+00
   1   16    8     1     8    3.2103E+05 -2.9209E+04   3.5024E+05  0.000E+00  0.000E+00  0.000E+00  4.52196E+01  2.991E-01  2.000E+01  2.000E+04 -1.460E+00
   1   16    9     1     9    3.5024E+05 -2.9257E+04   3.7949E+05  0.000E+00  0.000E+00  0.000E+00  4.47577E+01  3.145E-01  2.000E+01  2.000E+04 -1.463E+00
   1   16   10     1    10    3.7949E+05 -2.9221E+04   4.0872E+05  0.000E+00  0.000E+00  0.000E+00  4.42953E+01  3.294E-01  2.000E+01  2.000E+04 -1.461E+00
   1   16   11     1    11    4.0872E+05 -2.9674E+04   4.3839E+05  0.000E+00  0.000E+00  0.000E+00  4.38326E+01  3.439E-01  2.000E+01  2.000E+04 -1.484E+00
   1   16   12     1    12    4.3839E+05 -3.4675E+04   4.7306E+05  0.000E+00  0.000E+00  0.000E+00  4.33707E+01  3.594E-01  2.000E+01  2.000E+04 -1.734E+00
   1   15   13     1    13    4.7306E+05 -3.3020E+04   5.0608E+05  0.000E+00  0.000E+00  0.000E+00  4.29093E+01  3.752E-01  2.000E+01  2.000E+04 -1.651E+00
   1   14   14     1    14    5.0608E+05 -3.3340E+04   5.3942E+05  0.000E+00  0.000E+00  0.000E+00  4.24470E+01  3.902E-01  2.000E+01  2.000E+04 -1.667E+00
   1   13   15     1    15    5.3942E+05 -3.5683E+04   5.7511E+05  0.000E+00  0.000E+00  0.000E+00  4.19850E+01  4.055E-01  2.000E+01  2.000E+04 -1.784E+00
   1   12   16     1    16    5.7511E+05 -4.2335E+04   6.1744E+05  0.000E+00  0.000E+00  0.000E+00  4.15245E+01  4.223E-01  2.000E+01  2.000E+04 -2.117E+00
   1   12   17     1    17    6.1744E+05 -3.2825E+04   6.5027E+05  0.000E+00  0.000E+00  0.000E+00  4.10630E+01  4.380E-01  2.000E+01  2.000E+04 -1.641E+00
   1   12   18     1    18    6.5027E+05 -3.1291E+04   6.8156E+05  0.000E+00  0.000E+00  0.000E+00  4.05989E+01  4.512E-01  2.000E+01  2.000E+04 -1.565E+00
   1   12   19     1    19    6.8156E+05 -3.5535E+04   7.1709E+05  0.000E+00  0.000E+00  0.000E+00  4.01351E+01  4.647E-01  2.000E+01  2.000E+04 -1.777E+00
   1   13   20     1    20    7.1709E+05 -2.5463E+04   7.4256E+05  0.000E+00  0.000E+00  0.000E+00  3.96699E+01  4.767E-01  2.000E+01  2.000E+04 -1.273E+00
   1   14   21     1    21    7.4256E+05 -1.8430E+04   7.6099E+05  0.000E+00  0.000E+00  0.000E+00  3.92012E+01  4.853E-01  2.000E+01  2.000E+04 -9.215E-01
   1   14   22     1    22    7.6099E+05 -1.4634E+03   7.6245E+05  0.000E+00  0.000E+00  0.000E+00  3.87277E+01  4.891E-01  2.000E+01  2.000E+04 -7.317E-02
   1    9   30     2     1    5.0000E+04 -2.6328E+04   7.6328E+04  0.000E+00  0.000E+00  0.000E+00  4.02583E+01  1.333E-01  2.000E+01  2.000E+04 -1.316E+00
   1    9   29     2     2    7.6328E+04 -2.8797E+04   1.0512E+05  0.000E+00  0.000E+00  0.000E+00  4.00407E+01  1.657E-01  2.000E+01  2.000E+04 -1.440E+00
   1    9   28     2     3    1.0512E+05 -3.3080E+04   1.3820E+05  0.000E+00  0.000E+00  0.000E+00  3.98225E+01  1.975E-01  2.000E+01  2.000E+04 -1.654E+00
   1    9   27     2     4    1.3820E+05 -4.7162E+04   1.8537E+05  0.000E+00  0.000E+00  0.000E+00  3.96094E+01  2.344E-01  2.000E+01  2.000E+04 -2.358E+00
   1   10   26     2     5    1.8537E+05 -3.3110E+04   2.1848E+05  0.000E+00  0.000E+00  0.000E+00  3.93927E+01  2.677E-01  2.000E+01  2.000E+04 -1.655E+00
   1   11   25     2     6    2.1848E+05 -2.4755E+04   2.4323E+05  0.000E+00  0.000E+00  0.000E+00  3.91651E+01  2.901E-01  2.000E+01  2.000E+04 -1.238E+00
   1   12   24     2     7    2.4323E+05 -1.8191E+04   2.6142E+05  0.000E+00  0.000E+00  0.000E+00  3.89310E+01  3.060E-01  2.000E+01  2.000E+04 -9.095E-01
   1   13   23     2     8    2.6142E+05 -1.2840E+04   2.7426E+05  0.000E+00  0.000E+00  0.000E+00  3.86922E+01  3.172E-01  2.000E+01  2.000E+04 -6.420E-01
   1   14   22     2     9    2.7426E+05 -7.0345E+03   2.8130E+05  0.000E+00  0.000E+00  0.000E+00  3.84492E+01  3.242E-01  2.000E+01  2.000E+04 -3.517E-01
   1   14   22     3     1    1.0437E+06 -1.5059E+04   1.0588E+06  0.000E+00  0.000E+00  0.000E+00  3.80480E+01  4.924E-01  2.000E+01  2.000E+04 -7.529E-01
   1   15   23     3     2    1.0588E+06 -2.2934E+04   1.0817E+06  0.000E+00  0.000E+00  0.000E+00  3.71644E+01  4.977E-01  2.000E+01  2.000E+04 -1.147E+00
   1   15   24     3     3    1.0817E+06 -1.9275E+04   1.1010E+06  0.000E+00  0.000E+00  0.000E+00  3.62814E+01  5.036E-01  2.000E+01  2.000E+04 -9.637E-01
   1   15   25     3     4    1.1010E+06 -1.8957E+04   1.1200E+06  0.000E+00  0.000E+00  0.000E+00  3.53978E+01  5.089E-01  2.000E+01  2.000E+04 -9.478E-01
   1   15   26     3     5    1.1200E+06 -2.1732E+04   1.1417E+06  0.000E+00  0.000E+00  0.000E+00  3.45144E+01  5.144E-01  2.000E+01  2.000E+04 -1.087E+00
   1   16   27     3     6    1.1417E+06 -2.8855E+04   1.1706E+06  0.000E+00  0.000E+00  0.000E+00  3.36324E+01  5.213E-01  2.000E+01  2.000E+04 -1.443E+00
   1   17   28     3     7    1.1706E+06 -3.5937E+04   1.2065E+06  0.000E+00  0.000E+00  0.000E+00  3.27523E+01  5.300E-01  2.000E+01  2.000E+04 -1.797E+00
   1   18   29     3     8    1.2065E+06 -4.6977E+04   1.2535E+06  0.000E+00  0.000E+00  0.000E+00  3.18744E+01  5.411E-01  2.000E+01  2.000E+04 -2.349E+00
   1   18   30     3     9    1.2535E+06 -4.3476E+04   1.2969E+06  0.000E+00  0.000E+00  0.000E+00  3.09973E+01  5.529E-01  2.000E+01  2.000E+04 -2.174E+00




 HEAD WILL BE SAVED ON UNIT   51 AT END OF TIME STEP    1, STRESS PERIOD    3
1
  VOLUMETRIC BUDGET FOR ENTIRE MODEL AT END OF TIME STEP    1, STRESS PERIOD   3
  ------------------------------------------------------------------------------

     CUMULATIVE VOLUMES      L**3       RATES FOR THIS TIME STEP      L**3/T
     ------------------                 ------------------------

           IN:                                      IN:
           ---                                      ---
             STORAGE =    19943940.0000               STORAGE =        2286.5125
       CONSTANT HEAD =   311003584.0000         CONSTANT HEAD =     1163791.0000
               WELLS =           0.0000                 WELLS =           0.0000
            RECHARGE =     6292800.0000              RECHARGE =           0.0000
      STREAM LEAKAGE =           0.0000        STREAM LEAKAGE =           0.0000

            TOTAL IN =   337240320.0000              TOTAL IN =     1166077.5000

          OUT:                                     OUT:
          ----                                     ----
             STORAGE =       51246.8789               STORAGE =         563.1525
       CONSTANT HEAD =           0.0000         CONSTANT HEAD =           0.0000
               WELLS =    11413673.0000                 WELLS =       18565.2109
            RECHARGE =           0.0000              RECHARGE =           0.0000
      STREAM LEAKAGE =   325775520.0000        STREAM LEAKAGE =     1146949.1250

           TOTAL OUT =   337240416.0000             TOTAL OUT =     1166077.5000

            IN - OUT =         -96.0000              IN - OUT =           0.0000

 PERCENT DISCREPANCY =          -0.00     PERCENT DISCREPANCY =           0.00






         TIME SUMMARY AT END OF TIME STEP    1 IN STRESS PERIOD    3
                    SECONDS     MINUTES      HOURS       DAYS        YEARS
                    -----------------------------------------------------------
   TIME STEP LENGTH 7.86240E+06 1.31040E+05  2184.0      91.000     0.24914    
 STRESS PERIOD TIME 7.86240E+06 1.31040E+05  2184.0      91.000     0.24914    
         TOTAL TIME 2.36736E+07 3.94560E+05  6576.0      274.00     0.75017    
1
1
                            STRESS PERIOD NO.    4, LENGTH =   91.00000    
                            -----------------------------------------------

                              NUMBER OF TIME STEPS =     1

                               MULTIPLIER FOR DELT =     1.500

                            INITIAL TIME STEP SIZE =   91.00000    

 WELL NO.  LAYER   ROW   COL   STRESS RATE         
 --------------------------------------------------
      1      1     12     11       0.000    
      2      1     16     17     -0.3155E+05
      3      1     11     22       0.000    
      4      1     14     25      -7429.    

      4 WELLS

                 RECHARGE =  1.000000E-03

 REUSING STREAM SEGMENT DATA FROM LAST STRESS PERIOD
 
 SOLVING FOR HEAD 


     5 CALLS TO PCG ROUTINE FOR TIME STEP   1 IN STRESS PERIOD    4
    17 TOTAL ITERATIONS

 OUTPUT CONTROL FOR STRESS PERIOD    4   TIME STEP    1
    SAVE HEAD FOR ALL LAYERS
    SAVE BUDGET



 STREAM LISTING     PERIOD      4   STEP        1

 LAYER ROW COL. STREAM  RCH.  FLOW INTO     FLOW TO   FLOW OUT OF   OVRLND.     DIRECT     STREAM       STREAM     STREAM     STREAM   STREAMBED  STREAMBED
                SEG.NO.  NO.  STRM. RCH.    AQUIFER    STRM. RCH.    RUNOFF     PRECIP       ET          HEAD       DEPTH      WIDTH   CONDCTNC.   GRADIENT

   1   13    1     1     1    1.0000E+05 -2.7888E+04   1.2789E+05  0.000E+00  0.000E+00  0.000E+00  4.84178E+01  1.564E-01  2.000E+01  2.000E+04 -1.394E+00
   1   13    2     1     2    1.2789E+05 -3.7641E+04   1.6553E+05  0.000E+00  0.000E+00  0.000E+00  4.79661E+01  1.821E-01  2.000E+01  2.000E+04 -1.882E+00
   1   14    3     1     3    1.6553E+05 -3.3110E+04   1.9864E+05  0.000E+00  0.000E+00  0.000E+00  4.75141E+01  2.072E-01  2.000E+01  2.000E+04 -1.655E+00
   1   15    4     1     4    1.9864E+05 -3.2333E+04   2.3097E+05  0.000E+00  0.000E+00  0.000E+00  4.70584E+01  2.288E-01  2.000E+01  2.000E+04 -1.617E+00
   1   16    5     1     5    2.3097E+05 -3.3825E+04   2.6480E+05  0.000E+00  0.000E+00  0.000E+00  4.66017E+01  2.494E-01  2.000E+01  2.000E+04 -1.691E+00
   1   16    6     1     6    2.6480E+05 -2.9541E+04   2.9434E+05  0.000E+00  0.000E+00  0.000E+00  4.61431E+01  2.680E-01  2.000E+01  2.000E+04 -1.477E+00
   1   16    7     1     7    2.9434E+05 -2.9341E+04   3.2368E+05  0.000E+00  0.000E+00  0.000E+00  4.56824E+01  2.846E-01  2.000E+01  2.000E+04 -1.467E+00
   1   16    8     1     8    3.2368E+05 -2.9488E+04   3.5316E+05  0.000E+00  0.000E+00  0.000E+00  4.52211E+01  3.006E-01  2.000E+01  2.000E+04 -1.474E+00
   1   16    9     1     9    3.5316E+05 -2.9504E+04   3.8267E+05  0.000E+00  0.000E+00  0.000E+00  4.47592E+01  3.161E-01  2.000E+01  2.000E+04 -1.475E+00
   1   16   10     1    10    3.8267E+05 -2.9415E+04   4.1208E+05  0.000E+00  0.000E+00  0.000E+00  4.42969E+01  3.310E-01  2.000E+01  2.000E+04 -1.471E+00
   1   16   11     1    11    4.1208E+05 -2.9764E+04   4.4185E+05  0.000E+00  0.000E+00  0.000E+00  4.38342E+01  3.456E-01  2.000E+01  2.000E+04 -1.488E+00
   1   16   12     1    12    4.4185E+05 -3.4489E+04   4.7634E+05  0.000E+00  0.000E+00  0.000E+00  4.33723E+01  3.610E-01  2.000E+01  2.000E+04 -1.724E+00
   1   15   13     1    13    4.7634E+05 -3.2620E+04   5.0896E+05  0.000E+00  0.000E+00  0.000E+00  4.29107E+01  3.766E-01  2.000E+01  2.000E+04 -1.631E+00
   1   14   14     1    14    5.0896E+05 -3.2772E+04   5.4173E+05  0.000E+00  0.000E+00  0.000E+00  4.24482E+01  3.914E-01  2.000E+01  2.000E+04 -1.639E+00
   1   13   15     1    15    5.4173E+05 -3.5182E+04   5.7691E+05  0.000E+00  0.000E+00  0.000E+00  4.19859E+01  4.064E-01  2.000E+01  2.000E+04 -1.759E+00
   1   12   16     1    16    5.7691E+05 -4.2210E+04   6.1912E+05  0.000E+00  0.000E+00  0.000E+00  4.15253E+01  4.230E-01  2.000E+01  2.000E+04 -2.110E+00
   1   12   17     1    17    6.1912E+05 -3.2545E+04   6.5167E+05  0.000E+00  0.000E+00  0.000E+00  4.10637E+01  4.387E-01  2.000E+01  2.000E+04 -1.627E+00
   1   12   18     1    18    6.5167E+05 -3.1043E+04   6.8271E+05  0.000E+00  0.000E+00  0.000E+00  4.05995E+01  4.517E-01  2.000E+01  2.000E+04 -1.552E+00
   1   12   19     1    19    6.8271E+05 -3.5436E+04   7.1814E+05  0.000E+00  0.000E+00  0.000E+00  4.01356E+01  4.651E-01  2.000E+01  2.000E+04 -1.772E+00
   1   13   20     1    20    7.1814E+05 -2.5071E+04   7.4322E+05  0.000E+00  0.000E+00  0.000E+00  3.96702E+01  4.770E-01  2.000E+01  2.000E+04 -1.254E+00
   1   14   21     1    21    7.4322E+05 -1.7985E+04   7.6120E+05  0.000E+00  0.000E+00  0.000E+00  3.92013E+01  4.854E-01  2.000E+01  2.000E+04 -8.992E-01
   1   14   22     1    22    7.6120E+05 -1.3324E+03   7.6253E+05  0.000E+00  0.000E+00  0.000E+00  3.87278E+01  4.892E-01  2.000E+01  2.000E+04 -6.662E-02
   1    9   30     2     1    5.0000E+04 -2.6546E+04   7.6546E+04  0.000E+00  0.000E+00  0.000E+00  4.02584E+01  1.334E-01  2.000E+01  2.000E+04 -1.327E+00
   1    9   29     2     2    7.6546E+04 -2.9010E+04   1.0556E+05  0.000E+00  0.000E+00  0.000E+00  4.00410E+01  1.660E-01  2.000E+01  2.000E+04 -1.451E+00
   1    9   28     2     3    1.0556E+05 -3.3295E+04   1.3885E+05  0.000E+00  0.000E+00  0.000E+00  3.98231E+01  1.981E-01  2.000E+01  2.000E+04 -1.665E+00
   1    9   27     2     4    1.3885E+05 -4.7425E+04   1.8628E+05  0.000E+00  0.000E+00  0.000E+00  3.96101E+01  2.351E-01  2.000E+01  2.000E+04 -2.371E+00
   1   10   26     2     5    1.8628E+05 -3.3274E+04   2.1955E+05  0.000E+00  0.000E+00  0.000E+00  3.93935E+01  2.685E-01  2.000E+01  2.000E+04 -1.664E+00
   1   11   25     2     6    2.1955E+05 -2.4685E+04   2.4424E+05  0.000E+00  0.000E+00  0.000E+00  3.91659E+01  2.909E-01  2.000E+01  2.000E+04 -1.234E+00
   1   12   24     2     7    2.4424E+05 -1.7853E+04   2.6209E+05  0.000E+00  0.000E+00  0.000E+00  3.89316E+01  3.066E-01  2.000E+01  2.000E+04 -8.926E-01
   1   13   23     2     8    2.6209E+05 -1.2498E+04   2.7459E+05  0.000E+00  0.000E+00  0.000E+00  3.86925E+01  3.175E-01  2.000E+01  2.000E+04 -6.249E-01
   1   14   22     2     9    2.7459E+05 -6.9010E+03   2.8149E+05  0.000E+00  0.000E+00  0.000E+00  3.84494E+01  3.244E-01  2.000E+01  2.000E+04 -3.451E-01
   1   14   22     3     1    1.0440E+06 -1.4928E+04   1.0589E+06  0.000E+00  0.000E+00  0.000E+00  3.80480E+01  4.925E-01  2.000E+01  2.000E+04 -7.464E-01
   1   15   23     3     2    1.0589E+06 -2.2563E+04   1.0815E+06  0.000E+00  0.000E+00  0.000E+00  3.71644E+01  4.977E-01  2.000E+01  2.000E+04 -1.128E+00
   1   15   24     3     3    1.0815E+06 -1.8570E+04   1.1001E+06  0.000E+00  0.000E+00  0.000E+00  3.62812E+01  5.034E-01  2.000E+01  2.000E+04 -9.285E-01
   1   15   25     3     4    1.1001E+06 -1.7439E+04   1.1175E+06  0.000E+00  0.000E+00  0.000E+00  3.53973E+01  5.084E-01  2.000E+01  2.000E+04 -8.720E-01
   1   15   26     3     5    1.1175E+06 -2.1029E+04   1.1385E+06  0.000E+00  0.000E+00  0.000E+00  3.45137E+01  5.137E-01  2.000E+01  2.000E+04 -1.051E+00
   1   16   27     3     6    1.1385E+06 -2.8837E+04   1.1674E+06  0.000E+00  0.000E+00  0.000E+00  3.36316E+01  5.205E-01  2.000E+01  2.000E+04 -1.442E+00
   1   17   28     3     7    1.1674E+06 -3.6098E+04   1.2035E+06  0.000E+00  0.000E+00  0.000E+00  3.27514E+01  5.292E-01  2.000E+01  2.000E+04 -1.805E+00
   1   18   29     3     8    1.2035E+06 -4.7196E+04   1.2507E+06  0.000E+00  0.000E+00  0.000E+00  3.18736E+01  5.403E-01  2.000E+01  2.000E+04 -2.360E+00
   1   18   30     3     9    1.2507E+06 -4.3672E+04   1.2944E+06  0.000E+00  0.000E+00  0.000E+00  3.09966E+01  5.522E-01  2.000E+01  2.000E+04 -2.184E+00




 HEAD WILL BE SAVED ON UNIT   51 AT END OF TIME STEP    1, STRESS PERIOD    4
1
  VOLUMETRIC BUDGET FOR ENTIRE MODEL AT END OF TIME STEP    1, STRESS PERIOD   4
  ------------------------------------------------------------------------------

     CUMULATIVE VOLUMES      L**3       RATES FOR THIS TIME STEP      L**3/T
     ------------------                 ------------------------

           IN:                                      IN:
           ---                                      ---
             STORAGE =    19979570.0000               STORAGE =         391.5465
       CONSTANT HEAD =   416209376.0000         CONSTANT HEAD =     1156107.6250
               WELLS =           0.0000                 WELLS =           0.0000
            RECHARGE =     8804400.0000              RECHARGE =       27600.0000
      STREAM LEAKAGE =           0.0000        STREAM LEAKAGE =           0.0000

            TOTAL IN =   444993344.0000              TOTAL IN =     1184099.1250

          OUT:                                     OUT:
          ----                                     ----
             STORAGE =      120884.0312               STORAGE =         765.2433
       CONSTANT HEAD =           0.0000         CONSTANT HEAD =           0.0000
               WELLS =    14960876.0000                 WELLS =       38980.2461
            RECHARGE =           0.0000              RECHARGE =           0.0000
      STREAM LEAKAGE =   429911616.0000        STREAM LEAKAGE =     1144352.6250

           TOTAL OUT =   444993376.0000             TOTAL OUT =     1184098.1250

            IN - OUT =         -32.0000              IN - OUT =           1.0000

 PERCENT DISCREPANCY =          -0.00     PERCENT DISCREPANCY =           0.00






         TIME SUMMARY AT END OF TIME STEP    1 IN STRESS PERIOD    4
                    SECONDS     MINUTES      HOURS       DAYS        YEARS
                    -----------------------------------------------------------
   TIME STEP LENGTH 7.86240E+06 1.31040E+05  2184.0      91.000     0.24914    
 STRESS PERIOD TIME 7.86240E+06 1.31040E+05  2184.0      91.000     0.24914    
         TOTAL TIME 3.15360E+07 5.25600E+05  8760.0      365.00     0.99932    
1
1
                            STRESS PERIOD NO.    5, LENGTH =   92.00000    
                            -----------------------------------------------

                              NUMBER OF TIME STEPS =     1

                               MULTIPLIER FOR DELT =     1.500

                            INITIAL TIME STEP SIZE =   92.00000    

 WELL NO.  LAYER   ROW   COL   STRESS RATE         
 --------------------------------------------------
      1      1     12     11       0.000    
      2      1     16     17     -0.2757E+05
      3      1     11     22       0.000    
      4      1     14     25       0.000    

      4 WELLS

                 RECHARGE =  5.000000E-04

 REUSING STREAM SEGMENT DATA FROM LAST STRESS PERIOD
 
 SOLVING FOR HEAD 


     4 CALLS TO PCG ROUTINE FOR TIME STEP   1 IN STRESS PERIOD    5
    14 TOTAL ITERATIONS

 OUTPUT CONTROL FOR STRESS PERIOD    5   TIME STEP    1
    SAVE HEAD FOR ALL LAYERS
    SAVE BUDGET



 STREAM LISTING     PERIOD      5   STEP        1

 LAYER ROW COL. STREAM  RCH.  FLOW INTO     FLOW TO   FLOW OUT OF   OVRLND.     DIRECT     STREAM       STREAM     STREAM     STREAM   STREAMBED  STREAMBED
                SEG.NO.  NO.  STRM. RCH.    AQUIFER    STRM. RCH.    RUNOFF     PRECIP       ET          HEAD       DEPTH      WIDTH   CONDCTNC.   GRADIENT

   1   13    1     1     1    1.0000E+05 -2.7690E+04   1.2769E+05  0.000E+00  0.000E+00  0.000E+00  4.84177E+01  1.564E-01  2.000E+01  2.000E+04 -1.384E+00
   1   13    2     1     2    1.2769E+05 -3.7406E+04   1.6510E+05  0.000E+00  0.000E+00  0.000E+00  4.79659E+01  1.818E-01  2.000E+01  2.000E+04 -1.870E+00
   1   14    3     1     3    1.6510E+05 -3.2879E+04   1.9797E+05  0.000E+00  0.000E+00  0.000E+00  4.75137E+01  2.069E-01  2.000E+01  2.000E+04 -1.644E+00
   1   15    4     1     4    1.9797E+05 -3.2111E+04   2.3008E+05  0.000E+00  0.000E+00  0.000E+00  4.70579E+01  2.284E-01  2.000E+01  2.000E+04 -1.606E+00
   1   16    5     1     5    2.3008E+05 -3.3626E+04   2.6371E+05  0.000E+00  0.000E+00  0.000E+00  4.66011E+01  2.488E-01  2.000E+01  2.000E+04 -1.681E+00
   1   16    6     1     6    2.6371E+05 -2.9370E+04   2.9308E+05  0.000E+00  0.000E+00  0.000E+00  4.61424E+01  2.674E-01  2.000E+01  2.000E+04 -1.468E+00
   1   16    7     1     7    2.9308E+05 -2.9175E+04   3.2226E+05  0.000E+00  0.000E+00  0.000E+00  4.56816E+01  2.839E-01  2.000E+01  2.000E+04 -1.459E+00
   1   16    8     1     8    3.2226E+05 -2.9327E+04   3.5158E+05  0.000E+00  0.000E+00  0.000E+00  4.52203E+01  2.998E-01  2.000E+01  2.000E+04 -1.466E+00
   1   16    9     1     9    3.5158E+05 -2.9352E+04   3.8093E+05  0.000E+00  0.000E+00  0.000E+00  4.47584E+01  3.152E-01  2.000E+01  2.000E+04 -1.468E+00
   1   16   10     1    10    3.8093E+05 -2.9277E+04   4.1021E+05  0.000E+00  0.000E+00  0.000E+00  4.42960E+01  3.301E-01  2.000E+01  2.000E+04 -1.464E+00
   1   16   11     1    11    4.1021E+05 -2.9654E+04   4.3987E+05  0.000E+00  0.000E+00  0.000E+00  4.38333E+01  3.447E-01  2.000E+01  2.000E+04 -1.483E+00
   1   16   12     1    12    4.3987E+05 -3.4444E+04   4.7431E+05  0.000E+00  0.000E+00  0.000E+00  4.33714E+01  3.600E-01  2.000E+01  2.000E+04 -1.722E+00
   1   15   13     1    13    4.7431E+05 -3.2629E+04   5.0694E+05  0.000E+00  0.000E+00  0.000E+00  4.29097E+01  3.756E-01  2.000E+01  2.000E+04 -1.631E+00
   1   14   14     1    14    5.0694E+05 -3.2829E+04   5.3977E+05  0.000E+00  0.000E+00  0.000E+00  4.24473E+01  3.905E-01  2.000E+01  2.000E+04 -1.641E+00
   1   13   15     1    15    5.3977E+05 -3.5222E+04   5.7499E+05  0.000E+00  0.000E+00  0.000E+00  4.19851E+01  4.055E-01  2.000E+01  2.000E+04 -1.761E+00
   1   12   16     1    16    5.7499E+05 -4.2147E+04   6.1713E+05  0.000E+00  0.000E+00  0.000E+00  4.15245E+01  4.222E-01  2.000E+01  2.000E+04 -2.107E+00
   1   12   17     1    17    6.1713E+05 -3.2548E+04   6.4968E+05  0.000E+00  0.000E+00  0.000E+00  4.10629E+01  4.379E-01  2.000E+01  2.000E+04 -1.627E+00
   1   12   18     1    18    6.4968E+05 -3.1044E+04   6.8073E+05  0.000E+00  0.000E+00  0.000E+00  4.05986E+01  4.509E-01  2.000E+01  2.000E+04 -1.552E+00
   1   12   19     1    19    6.8073E+05 -3.5396E+04   7.1612E+05  0.000E+00  0.000E+00  0.000E+00  4.01348E+01  4.643E-01  2.000E+01  2.000E+04 -1.770E+00
   1   13   20     1    20    7.1612E+05 -2.5131E+04   7.4125E+05  0.000E+00  0.000E+00  0.000E+00  3.96694E+01  4.763E-01  2.000E+01  2.000E+04 -1.257E+00
   1   14   21     1    21    7.4125E+05 -1.8081E+04   7.5933E+05  0.000E+00  0.000E+00  0.000E+00  3.92006E+01  4.847E-01  2.000E+01  2.000E+04 -9.041E-01
   1   14   22     1    22    7.5933E+05 -1.4329E+03   7.6077E+05  0.000E+00  0.000E+00  0.000E+00  3.87271E+01  4.885E-01  2.000E+01  2.000E+04 -7.165E-02
   1    9   30     2     1    5.0000E+04 -2.6480E+04   7.6480E+04  0.000E+00  0.000E+00  0.000E+00  4.02584E+01  1.334E-01  2.000E+01  2.000E+04 -1.324E+00
   1    9   29     2     2    7.6480E+04 -2.8947E+04   1.0543E+05  0.000E+00  0.000E+00  0.000E+00  4.00409E+01  1.659E-01  2.000E+01  2.000E+04 -1.447E+00
   1    9   28     2     3    1.0543E+05 -3.3233E+04   1.3866E+05  0.000E+00  0.000E+00  0.000E+00  3.98229E+01  1.979E-01  2.000E+01  2.000E+04 -1.662E+00
   1    9   27     2     4    1.3866E+05 -4.7342E+04   1.8600E+05  0.000E+00  0.000E+00  0.000E+00  3.96099E+01  2.349E-01  2.000E+01  2.000E+04 -2.367E+00
   1   10   26     2     5    1.8600E+05 -3.3304E+04   2.1931E+05  0.000E+00  0.000E+00  0.000E+00  3.93933E+01  2.683E-01  2.000E+01  2.000E+04 -1.665E+00
   1   11   25     2     6    2.1931E+05 -2.4946E+04   2.4425E+05  0.000E+00  0.000E+00  0.000E+00  3.91658E+01  2.908E-01  2.000E+01  2.000E+04 -1.247E+00
   1   12   24     2     7    2.4425E+05 -1.8353E+04   2.6260E+05  0.000E+00  0.000E+00  0.000E+00  3.89318E+01  3.068E-01  2.000E+01  2.000E+04 -9.176E-01
   1   13   23     2     8    2.6260E+05 -1.2930E+04   2.7553E+05  0.000E+00  0.000E+00  0.000E+00  3.86930E+01  3.180E-01  2.000E+01  2.000E+04 -6.465E-01
   1   14   22     2     9    2.7553E+05 -6.9738E+03   2.8251E+05  0.000E+00  0.000E+00  0.000E+00  3.84501E+01  3.251E-01  2.000E+01  2.000E+04 -3.487E-01
   1   14   22     3     1    1.0433E+06 -1.5018E+04   1.0583E+06  0.000E+00  0.000E+00  0.000E+00  3.80478E+01  4.923E-01  2.000E+01  2.000E+04 -7.509E-01
   1   15   23     3     2    1.0583E+06 -2.2838E+04   1.0811E+06  0.000E+00  0.000E+00  0.000E+00  3.71642E+01  4.976E-01  2.000E+01  2.000E+04 -1.142E+00
   1   15   24     3     3    1.0811E+06 -1.9308E+04   1.1004E+06  0.000E+00  0.000E+00  0.000E+00  3.62812E+01  5.034E-01  2.000E+01  2.000E+04 -9.654E-01
   1   15   25     3     4    1.1004E+06 -1.9057E+04   1.1195E+06  0.000E+00  0.000E+00  0.000E+00  3.53976E+01  5.087E-01  2.000E+01  2.000E+04 -9.528E-01
   1   15   26     3     5    1.1195E+06 -2.1882E+04   1.1414E+06  0.000E+00  0.000E+00  0.000E+00  3.45143E+01  5.143E-01  2.000E+01  2.000E+04 -1.094E+00
   1   16   27     3     6    1.1414E+06 -2.9002E+04   1.1704E+06  0.000E+00  0.000E+00  0.000E+00  3.36324E+01  5.213E-01  2.000E+01  2.000E+04 -1.450E+00
   1   17   28     3     7    1.1704E+06 -3.6083E+04   1.2065E+06  0.000E+00  0.000E+00  0.000E+00  3.27522E+01  5.300E-01  2.000E+01  2.000E+04 -1.804E+00
   1   18   29     3     8    1.2065E+06 -4.7111E+04   1.2536E+06  0.000E+00  0.000E+00  0.000E+00  3.18744E+01  5.411E-01  2.000E+01  2.000E+04 -2.356E+00
   1   18   30     3     9    1.2536E+06 -4.3600E+04   1.2972E+06  0.000E+00  0.000E+00  0.000E+00  3.09974E+01  5.529E-01  2.000E+01  2.000E+04 -2.180E+00




 HEAD WILL BE SAVED ON UNIT   51 AT END OF TIME STEP    1, STRESS PERIOD    5
1
  VOLUMETRIC BUDGET FOR ENTIRE MODEL AT END OF TIME STEP    1, STRESS PERIOD   5
  ------------------------------------------------------------------------------

     CUMULATIVE VOLUMES      L**3       RATES FOR THIS TIME STEP      L**3/T
     ------------------                 ------------------------

           IN:                                      IN:
           ---                                      ---
             STORAGE =    20018572.0000               STORAGE =         423.9370
       CONSTANT HEAD =   522988544.0000         CONSTANT HEAD =     1160643.0000
               WELLS =           0.0000                 WELLS =           0.0000
            RECHARGE =    10074000.0000              RECHARGE =       13800.0000
      STREAM LEAKAGE =           0.0000        STREAM LEAKAGE =           0.0000

            TOTAL IN =   553081088.0000              TOTAL IN =     1174866.8750

          OUT:                                     OUT:
          ----                                     ----
             STORAGE =      132530.0938               STORAGE =         126.5877
       CONSTANT HEAD =           0.0000         CONSTANT HEAD =           0.0000
               WELLS =    17497002.0000                 WELLS =       27566.5840
            RECHARGE =           0.0000              RECHARGE =           0.0000
      STREAM LEAKAGE =   535451808.0000        STREAM LEAKAGE =     1147176.1250

           TOTAL OUT =   553081344.0000             TOTAL OUT =     1174869.3750

            IN - OUT =        -256.0000              IN - OUT =          -2.5000

 PERCENT DISCREPANCY =          -0.00     PERCENT DISCREPANCY =          -0.00






         TIME SUMMARY AT END OF TIME STEP    1 IN STRESS PERIOD    5
                    SECONDS     MINUTES      HOURS       DAYS        YEARS
                    -----------------------------------------------------------
   TIME STEP LENGTH 7.94880E+06 1.32480E+05  2208.0      92.000     0.25188    
 STRESS PERIOD TIME 7.94880E+06 1.32480E+05  2208.0      92.000     0.25188    
         TOTAL TIME 3.94848E+07 6.58080E+05  10968.      457.00      1.2512    
1
1
                            STRESS PERIOD NO.    6, LENGTH =   91.00000    
                            -----------------------------------------------

                              NUMBER OF TIME STEPS =     1

                               MULTIPLIER FOR DELT =     1.500

                            INITIAL TIME STEP SIZE =   91.00000    

 WELL NO.  LAYER   ROW   COL   STRESS RATE         
 --------------------------------------------------
      1      1     12     11       0.000    
      2      1     16     17     -0.2965E+05
      3      1     11     22       0.000    
      4      1     14     25     -0.4934E+05

      4 WELLS

                 RECHARGE =  2.000000E-03

 REUSING STREAM SEGMENT DATA FROM LAST STRESS PERIOD
 
 SOLVING FOR HEAD 


     5 CALLS TO PCG ROUTINE FOR TIME STEP   1 IN STRESS PERIOD    6
    18 TOTAL ITERATIONS

 OUTPUT CONTROL FOR STRESS PERIOD    6   TIME STEP    1
    SAVE HEAD FOR ALL LAYERS
    SAVE BUDGET



 STREAM LISTING     PERIOD      6   STEP        1

 LAYER ROW COL. STREAM  RCH.  FLOW INTO     FLOW TO   FLOW OUT OF   OVRLND.     DIRECT     STREAM       STREAM     STREAM     STREAM   STREAMBED  STREAMBED
                SEG.NO.  NO.  STRM. RCH.    AQUIFER    STRM. RCH.    RUNOFF     PRECIP       ET          HEAD       DEPTH      WIDTH   CONDCTNC.   GRADIENT

   1   13    1     1     1    1.0000E+05 -2.8340E+04   1.2834E+05  0.000E+00  0.000E+00  0.000E+00  4.84180E+01  1.566E-01  2.000E+01  2.000E+04 -1.417E+00
   1   13    2     1     2    1.2834E+05 -3.8182E+04   1.6652E+05  0.000E+00  0.000E+00  0.000E+00  4.79667E+01  1.826E-01  2.000E+01  2.000E+04 -1.909E+00
   1   14    3     1     3    1.6652E+05 -3.3637E+04   2.0016E+05  0.000E+00  0.000E+00  0.000E+00  4.75149E+01  2.081E-01  2.000E+01  2.000E+04 -1.682E+00
   1   15    4     1     4    2.0016E+05 -3.2839E+04   2.3300E+05  0.000E+00  0.000E+00  0.000E+00  4.70595E+01  2.300E-01  2.000E+01  2.000E+04 -1.642E+00
   1   16    5     1     5    2.3300E+05 -3.4281E+04   2.6728E+05  0.000E+00  0.000E+00  0.000E+00  4.66030E+01  2.507E-01  2.000E+01  2.000E+04 -1.714E+00
   1   16    6     1     6    2.6728E+05 -2.9938E+04   2.9722E+05  0.000E+00  0.000E+00  0.000E+00  4.61446E+01  2.696E-01  2.000E+01  2.000E+04 -1.497E+00
   1   16    7     1     7    2.9722E+05 -2.9736E+04   3.2695E+05  0.000E+00  0.000E+00  0.000E+00  4.56841E+01  2.863E-01  2.000E+01  2.000E+04 -1.487E+00
   1   16    8     1     8    3.2695E+05 -2.9885E+04   3.5684E+05  0.000E+00  0.000E+00  0.000E+00  4.52229E+01  3.025E-01  2.000E+01  2.000E+04 -1.494E+00
   1   16    9     1     9    3.5684E+05 -2.9903E+04   3.8674E+05  0.000E+00  0.000E+00  0.000E+00  4.47612E+01  3.181E-01  2.000E+01  2.000E+04 -1.495E+00
   1   16   10     1    10    3.8674E+05 -2.9817E+04   4.1656E+05  0.000E+00  0.000E+00  0.000E+00  4.42991E+01  3.331E-01  2.000E+01  2.000E+04 -1.491E+00
   1   16   11     1    11    4.1656E+05 -3.0182E+04   4.4674E+05  0.000E+00  0.000E+00  0.000E+00  4.38365E+01  3.479E-01  2.000E+01  2.000E+04 -1.509E+00
   1   16   12     1    12    4.4674E+05 -3.5005E+04   4.8174E+05  0.000E+00  0.000E+00  0.000E+00  4.33748E+01  3.634E-01  2.000E+01  2.000E+04 -1.750E+00
   1   15   13     1    13    4.8174E+05 -3.3215E+04   5.1496E+05  0.000E+00  0.000E+00  0.000E+00  4.29133E+01  3.792E-01  2.000E+01  2.000E+04 -1.661E+00
   1   14   14     1    14    5.1496E+05 -3.3405E+04   5.4836E+05  0.000E+00  0.000E+00  0.000E+00  4.24510E+01  3.942E-01  2.000E+01  2.000E+04 -1.670E+00
   1   13   15     1    15    5.4836E+05 -3.5798E+04   5.8416E+05  0.000E+00  0.000E+00  0.000E+00  4.19889E+01  4.094E-01  2.000E+01  2.000E+04 -1.790E+00
   1   12   16     1    16    5.8416E+05 -4.2754E+04   6.2692E+05  0.000E+00  0.000E+00  0.000E+00  4.15285E+01  4.262E-01  2.000E+01  2.000E+04 -2.138E+00
   1   12   17     1    17    6.2692E+05 -3.2987E+04   6.5990E+05  0.000E+00  0.000E+00  0.000E+00  4.10670E+01  4.420E-01  2.000E+01  2.000E+04 -1.649E+00
   1   12   18     1    18    6.5990E+05 -3.1434E+04   6.9134E+05  0.000E+00  0.000E+00  0.000E+00  4.06029E+01  4.551E-01  2.000E+01  2.000E+04 -1.572E+00
   1   12   19     1    19    6.9134E+05 -3.5774E+04   7.2711E+05  0.000E+00  0.000E+00  0.000E+00  4.01390E+01  4.686E-01  2.000E+01  2.000E+04 -1.789E+00
   1   13   20     1    20    7.2711E+05 -2.5321E+04   7.5243E+05  0.000E+00  0.000E+00  0.000E+00  3.96738E+01  4.806E-01  2.000E+01  2.000E+04 -1.266E+00
   1   14   21     1    21    7.5243E+05 -1.8079E+04   7.7051E+05  0.000E+00  0.000E+00  0.000E+00  3.92049E+01  4.890E-01  2.000E+01  2.000E+04 -9.040E-01
   1   14   22     1    22    7.7051E+05 -7.7378E+02   7.7129E+05  0.000E+00  0.000E+00  0.000E+00  3.87313E+01  4.926E-01  2.000E+01  2.000E+04 -3.869E-02
   1    9   30     2     1    5.0000E+04 -2.6423E+04   7.6423E+04  0.000E+00  0.000E+00  0.000E+00  4.02584E+01  1.334E-01  2.000E+01  2.000E+04 -1.321E+00
   1    9   29     2     2    7.6423E+04 -2.8866E+04   1.0529E+05  0.000E+00  0.000E+00  0.000E+00  4.00408E+01  1.658E-01  2.000E+01  2.000E+04 -1.443E+00
   1    9   28     2     3    1.0529E+05 -3.3128E+04   1.3842E+05  0.000E+00  0.000E+00  0.000E+00  3.98227E+01  1.977E-01  2.000E+01  2.000E+04 -1.656E+00
   1    9   27     2     4    1.3842E+05 -4.7280E+04   1.8570E+05  0.000E+00  0.000E+00  0.000E+00  3.96096E+01  2.346E-01  2.000E+01  2.000E+04 -2.364E+00
   1   10   26     2     5    1.8570E+05 -3.2460E+04   2.1816E+05  0.000E+00  0.000E+00  0.000E+00  3.93927E+01  2.677E-01  2.000E+01  2.000E+04 -1.623E+00
   1   11   25     2     6    2.1816E+05 -2.2605E+04   2.4076E+05  0.000E+00  0.000E+00  0.000E+00  3.91641E+01  2.891E-01  2.000E+01  2.000E+04 -1.130E+00
   1   12   24     2     7    2.4076E+05 -1.4510E+04   2.5527E+05  0.000E+00  0.000E+00  0.000E+00  3.89279E+01  3.029E-01  2.000E+01  2.000E+04 -7.255E-01
   1   13   23     2     8    2.5527E+05 -9.7249E+03   2.6500E+05  0.000E+00  0.000E+00  0.000E+00  3.86867E+01  3.117E-01  2.000E+01  2.000E+04 -4.862E-01
   1   14   22     2     9    2.6500E+05 -6.5495E+03   2.7155E+05  0.000E+00  0.000E+00  0.000E+00  3.84425E+01  3.175E-01  2.000E+01  2.000E+04 -3.275E-01
   1   14   22     3     1    1.0428E+06 -1.4447E+04   1.0573E+06  0.000E+00  0.000E+00  0.000E+00  3.80476E+01  4.921E-01  2.000E+01  2.000E+04 -7.223E-01
   1   15   23     3     2    1.0573E+06 -2.1052E+04   1.0783E+06  0.000E+00  0.000E+00  0.000E+00  3.71637E+01  4.970E-01  2.000E+01  2.000E+04 -1.053E+00
   1   15   24     3     3    1.0783E+06 -1.4200E+04   1.0925E+06  0.000E+00  0.000E+00  0.000E+00  3.62797E+01  5.020E-01  2.000E+01  2.000E+04 -7.100E-01
   1   15   25     3     4    1.0925E+06 -7.9868E+03   1.1005E+06  0.000E+00  0.000E+00  0.000E+00  3.53939E+01  5.050E-01  2.000E+01  2.000E+04 -3.993E-01
   1   15   26     3     5    1.1005E+06 -1.5757E+04   1.1163E+06  0.000E+00  0.000E+00  0.000E+00  3.45083E+01  5.083E-01  2.000E+01  2.000E+04 -7.878E-01
   1   16   27     3     6    1.1163E+06 -2.7392E+04   1.1437E+06  0.000E+00  0.000E+00  0.000E+00  3.36253E+01  5.142E-01  2.000E+01  2.000E+04 -1.370E+00
   1   17   28     3     7    1.1437E+06 -3.5648E+04   1.1793E+06  0.000E+00  0.000E+00  0.000E+00  3.27450E+01  5.228E-01  2.000E+01  2.000E+04 -1.782E+00
   1   18   29     3     8    1.1793E+06 -4.7165E+04   1.2265E+06  0.000E+00  0.000E+00  0.000E+00  3.18672E+01  5.339E-01  2.000E+01  2.000E+04 -2.358E+00
   1   18   30     3     9    1.2265E+06 -4.3628E+04   1.2701E+06  0.000E+00  0.000E+00  0.000E+00  3.09903E+01  5.459E-01  2.000E+01  2.000E+04 -2.181E+00




 HEAD WILL BE SAVED ON UNIT   51 AT END OF TIME STEP    1, STRESS PERIOD    6
1
  VOLUMETRIC BUDGET FOR ENTIRE MODEL AT END OF TIME STEP    1, STRESS PERIOD   6
  ------------------------------------------------------------------------------

     CUMULATIVE VOLUMES      L**3       RATES FOR THIS TIME STEP      L**3/T
     ------------------                 ------------------------

           IN:                                      IN:
           ---                                      ---
             STORAGE =    20061876.0000               STORAGE =         475.8696
       CONSTANT HEAD =   627182144.0000         CONSTANT HEAD =     1144984.7500
               WELLS =           0.0000                 WELLS =           0.0000
            RECHARGE =    15097200.0000              RECHARGE =       55200.0000
      STREAM LEAKAGE =           0.0000        STREAM LEAKAGE =           0.0000

            TOTAL IN =   662341248.0000              TOTAL IN =     1200660.6250

          OUT:                                     OUT:
          ----                                     ----
             STORAGE =      274564.0938               STORAGE =        1560.8132
       CONSTANT HEAD =           0.0000         CONSTANT HEAD =           0.0000
               WELLS =    24685116.0000                 WELLS =       78990.2500
            RECHARGE =           0.0000              RECHARGE =           0.0000
      STREAM LEAKAGE =   637381696.0000        STREAM LEAKAGE =     1120108.6250

           TOTAL OUT =   662341376.0000             TOTAL OUT =     1200659.7500

            IN - OUT =        -128.0000              IN - OUT =           0.8750

 PERCENT DISCREPANCY =          -0.00     PERCENT DISCREPANCY =           0.00






         TIME SUMMARY AT END OF TIME STEP    1 IN STRESS PERIOD    6
                    SECONDS     MINUTES      HOURS       DAYS        YEARS
                    -----------------------------------------------------------
   TIME STEP LENGTH 7.86240E+06 1.31040E+05  2184.0      91.000     0.24914    
 STRESS PERIOD TIME 7.86240E+06 1.31040E+05  2184.0      91.000     0.24914    
         TOTAL TIME 4.73472E+07 7.89120E+05  13152.      548.00      1.5003    
1
1
                            STRESS PERIOD NO.    7, LENGTH =   91.00000    
                            -----------------------------------------------

                              NUMBER OF TIME STEPS =     1

                               MULTIPLIER FOR DELT =     1.500

                            INITIAL TIME STEP SIZE =   91.00000    

 WELL NO.  LAYER   ROW   COL   STRESS RATE         
 --------------------------------------------------
      1      1     12     11       0.000    
      2      1     16     17     -0.1857E+05
      3      1     11     22       0.000    
      4      1     14     25       0.000    

      4 WELLS

                 RECHARGE =   0.00000    

 REUSING STREAM SEGMENT DATA FROM LAST STRESS PERIOD
 
 SOLVING FOR HEAD 


     5 CALLS TO PCG ROUTINE FOR TIME STEP   1 IN STRESS PERIOD    7
    18 TOTAL ITERATIONS

 OUTPUT CONTROL FOR STRESS PERIOD    7   TIME STEP    1
    SAVE HEAD FOR ALL LAYERS
    SAVE BUDGET



 STREAM LISTING     PERIOD      7   STEP        1

 LAYER ROW COL. STREAM  RCH.  FLOW INTO     FLOW TO   FLOW OUT OF   OVRLND.     DIRECT     STREAM       STREAM     STREAM     STREAM   STREAMBED  STREAMBED
                SEG.NO.  NO.  STRM. RCH.    AQUIFER    STRM. RCH.    RUNOFF     PRECIP       ET          HEAD       DEPTH      WIDTH   CONDCTNC.   GRADIENT

   1   13    1     1     1    1.0000E+05 -2.7502E+04   1.2750E+05  0.000E+00  0.000E+00  0.000E+00  4.84176E+01  1.563E-01  2.000E+01  2.000E+04 -1.375E+00
   1   13    2     1     2    1.2750E+05 -3.7183E+04   1.6468E+05  0.000E+00  0.000E+00  0.000E+00  4.79657E+01  1.816E-01  2.000E+01  2.000E+04 -1.859E+00
   1   14    3     1     3    1.6468E+05 -3.2660E+04   1.9735E+05  0.000E+00  0.000E+00  0.000E+00  4.75133E+01  2.065E-01  2.000E+01  2.000E+04 -1.633E+00
   1   15    4     1     4    1.9735E+05 -3.1903E+04   2.2925E+05  0.000E+00  0.000E+00  0.000E+00  4.70574E+01  2.279E-01  2.000E+01  2.000E+04 -1.595E+00
   1   16    5     1     5    2.2925E+05 -3.3444E+04   2.6269E+05  0.000E+00  0.000E+00  0.000E+00  4.66005E+01  2.482E-01  2.000E+01  2.000E+04 -1.672E+00
   1   16    6     1     6    2.6269E+05 -2.9219E+04   2.9191E+05  0.000E+00  0.000E+00  0.000E+00  4.61417E+01  2.667E-01  2.000E+01  2.000E+04 -1.461E+00
   1   16    7     1     7    2.9191E+05 -2.9035E+04   3.2095E+05  0.000E+00  0.000E+00  0.000E+00  4.56809E+01  2.832E-01  2.000E+01  2.000E+04 -1.452E+00
   1   16    8     1     8    3.2095E+05 -2.9200E+04   3.5015E+05  0.000E+00  0.000E+00  0.000E+00  4.52195E+01  2.991E-01  2.000E+01  2.000E+04 -1.460E+00
   1   16    9     1     9    3.5015E+05 -2.9248E+04   3.7939E+05  0.000E+00  0.000E+00  0.000E+00  4.47576E+01  3.144E-01  2.000E+01  2.000E+04 -1.462E+00
   1   16   10     1    10    3.7939E+05 -2.9212E+04   4.0861E+05  0.000E+00  0.000E+00  0.000E+00  4.42952E+01  3.293E-01  2.000E+01  2.000E+04 -1.461E+00
   1   16   11     1    11    4.0861E+05 -2.9666E+04   4.3827E+05  0.000E+00  0.000E+00  0.000E+00  4.38325E+01  3.439E-01  2.000E+01  2.000E+04 -1.483E+00
   1   16   12     1    12    4.3827E+05 -3.4665E+04   4.7294E+05  0.000E+00  0.000E+00  0.000E+00  4.33707E+01  3.593E-01  2.000E+01  2.000E+04 -1.733E+00
   1   15   13     1    13    4.7294E+05 -3.3008E+04   5.0594E+05  0.000E+00  0.000E+00  0.000E+00  4.29092E+01  3.751E-01  2.000E+01  2.000E+04 -1.650E+00
   1   14   14     1    14    5.0594E+05 -3.3327E+04   5.3927E+05  0.000E+00  0.000E+00  0.000E+00  4.24470E+01  3.901E-01  2.000E+01  2.000E+04 -1.666E+00
   1   13   15     1    15    5.3927E+05 -3.5670E+04   5.7494E+05  0.000E+00  0.000E+00  0.000E+00  4.19849E+01  4.054E-01  2.000E+01  2.000E+04 -1.783E+00
   1   12   16     1    16    5.7494E+05 -4.2322E+04   6.1726E+05  0.000E+00  0.000E+00  0.000E+00  4.15245E+01  4.222E-01  2.000E+01  2.000E+04 -2.116E+00
   1   12   17     1    17    6.1726E+05 -3.2815E+04   6.5008E+05  0.000E+00  0.000E+00  0.000E+00  4.10630E+01  4.380E-01  2.000E+01  2.000E+04 -1.641E+00
   1   12   18     1    18    6.5008E+05 -3.1282E+04   6.8136E+05  0.000E+00  0.000E+00  0.000E+00  4.05989E+01  4.511E-01  2.000E+01  2.000E+04 -1.564E+00
   1   12   19     1    19    6.8136E+05 -3.5526E+04   7.1689E+05  0.000E+00  0.000E+00  0.000E+00  4.01350E+01  4.646E-01  2.000E+01  2.000E+04 -1.776E+00
   1   13   20     1    20    7.1689E+05 -2.5456E+04   7.4234E+05  0.000E+00  0.000E+00  0.000E+00  3.96698E+01  4.766E-01  2.000E+01  2.000E+04 -1.273E+00
   1   14   21     1    21    7.4234E+05 -1.8424E+04   7.6077E+05  0.000E+00  0.000E+00  0.000E+00  3.92011E+01  4.852E-01  2.000E+01  2.000E+04 -9.212E-01
   1   14   22     1    22    7.6077E+05 -1.4620E+03   7.6223E+05  0.000E+00  0.000E+00  0.000E+00  3.87277E+01  4.890E-01  2.000E+01  2.000E+04 -7.310E-02
   1    9   30     2     1    5.0000E+04 -2.6325E+04   7.6325E+04  0.000E+00  0.000E+00  0.000E+00  4.02583E+01  1.333E-01  2.000E+01  2.000E+04 -1.316E+00
   1    9   29     2     2    7.6325E+04 -2.8793E+04   1.0512E+05  0.000E+00  0.000E+00  0.000E+00  4.00407E+01  1.657E-01  2.000E+01  2.000E+04 -1.440E+00
   1    9   28     2     3    1.0512E+05 -3.3076E+04   1.3819E+05  0.000E+00  0.000E+00  0.000E+00  3.98225E+01  1.975E-01  2.000E+01  2.000E+04 -1.654E+00
   1    9   27     2     4    1.3819E+05 -4.7156E+04   1.8535E+05  0.000E+00  0.000E+00  0.000E+00  3.96094E+01  2.344E-01  2.000E+01  2.000E+04 -2.358E+00
   1   10   26     2     5    1.8535E+05 -3.3104E+04   2.1846E+05  0.000E+00  0.000E+00  0.000E+00  3.93927E+01  2.677E-01  2.000E+01  2.000E+04 -1.655E+00
   1   11   25     2     6    2.1846E+05 -2.4750E+04   2.4321E+05  0.000E+00  0.000E+00  0.000E+00  3.91651E+01  2.901E-01  2.000E+01  2.000E+04 -1.238E+00
   1   12   24     2     7    2.4321E+05 -1.8186E+04   2.6139E+05  0.000E+00  0.000E+00  0.000E+00  3.89310E+01  3.060E-01  2.000E+01  2.000E+04 -9.093E-01
   1   13   23     2     8    2.6139E+05 -1.2836E+04   2.7423E+05  0.000E+00  0.000E+00  0.000E+00  3.86922E+01  3.172E-01  2.000E+01  2.000E+04 -6.418E-01
   1   14   22     2     9    2.7423E+05 -7.0319E+03   2.8126E+05  0.000E+00  0.000E+00  0.000E+00  3.84492E+01  3.242E-01  2.000E+01  2.000E+04 -3.516E-01
   1   14   22     3     1    1.0435E+06 -1.5057E+04   1.0585E+06  0.000E+00  0.000E+00  0.000E+00  3.80479E+01  4.923E-01  2.000E+01  2.000E+04 -7.529E-01
   1   15   23     3     2    1.0585E+06 -2.2929E+04   1.0815E+06  0.000E+00  0.000E+00  0.000E+00  3.71643E+01  4.977E-01  2.000E+01  2.000E+04 -1.146E+00
   1   15   24     3     3    1.0815E+06 -1.9271E+04   1.1007E+06  0.000E+00  0.000E+00  0.000E+00  3.62813E+01  5.035E-01  2.000E+01  2.000E+04 -9.636E-01
   1   15   25     3     4    1.1007E+06 -1.8954E+04   1.1197E+06  0.000E+00  0.000E+00  0.000E+00  3.53977E+01  5.088E-01  2.000E+01  2.000E+04 -9.477E-01
   1   15   26     3     5    1.1197E+06 -2.1729E+04   1.1414E+06  0.000E+00  0.000E+00  0.000E+00  3.45144E+01  5.144E-01  2.000E+01  2.000E+04 -1.086E+00
   1   16   27     3     6    1.1414E+06 -2.8852E+04   1.1703E+06  0.000E+00  0.000E+00  0.000E+00  3.36324E+01  5.212E-01  2.000E+01  2.000E+04 -1.443E+00
   1   17   28     3     7    1.1703E+06 -3.5933E+04   1.2062E+06  0.000E+00  0.000E+00  0.000E+00  3.27522E+01  5.300E-01  2.000E+01  2.000E+04 -1.797E+00
   1   18   29     3     8    1.2062E+06 -4.6973E+04   1.2532E+06  0.000E+00  0.000E+00  0.000E+00  3.18743E+01  5.410E-01  2.000E+01  2.000E+04 -2.349E+00
   1   18   30     3     9    1.2532E+06 -4.3473E+04   1.2967E+06  0.000E+00  0.000E+00  0.000E+00  3.09973E+01  5.528E-01  2.000E+01  2.000E+04 -2.174E+00




 HEAD WILL BE SAVED ON UNIT   51 AT END OF TIME STEP    1, STRESS PERIOD    7
1
  VOLUMETRIC BUDGET FOR ENTIRE MODEL AT END OF TIME STEP    1, STRESS PERIOD   7
  ------------------------------------------------------------------------------

     CUMULATIVE VOLUMES      L**3       RATES FOR THIS TIME STEP      L**3/T
     ------------------                 ------------------------

           IN:                                      IN:
           ---                                      ---
             STORAGE =    20226722.0000               STORAGE =        1811.4904
       CONSTANT HEAD =   733109120.0000         CONSTANT HEAD =     1164032.6250
               WELLS =           0.0000                 WELLS =           0.0000
            RECHARGE =    15097200.0000              RECHARGE =           0.0000
      STREAM LEAKAGE =           0.0000        STREAM LEAKAGE =           0.0000

            TOTAL IN =   768433088.0000              TOTAL IN =     1165844.1250

          OUT:                                     OUT:
          ----                                     ----
             STORAGE =      330844.6250               STORAGE =         618.4674
       CONSTANT HEAD =           0.0000         CONSTANT HEAD =           0.0000
               WELLS =    26374550.0000                 WELLS =       18565.2109
            RECHARGE =           0.0000              RECHARGE =           0.0000
      STREAM LEAKAGE =   741727744.0000        STREAM LEAKAGE =     1146660.2500

           TOTAL OUT =   768433088.0000             TOTAL OUT =     1165844.0000

            IN - OUT =           0.0000              IN - OUT =           0.1250

 PERCENT DISCREPANCY =           0.00     PERCENT DISCREPANCY =           0.00






         TIME SUMMARY AT END OF TIME STEP    1 IN STRESS PERIOD    7
                    SECONDS     MINUTES      HOURS       DAYS        YEARS
                    -----------------------------------------------------------
   TIME STEP LENGTH 7.86240E+06 1.31040E+05  2184.0      91.000     0.24914    
 STRESS PERIOD TIME 7.86240E+06 1.31040E+05  2184.0      91.000     0.24914    
         TOTAL TIME 5.52096E+07 9.20160E+05  15336.      639.00      1.7495    
1
1
                            STRESS PERIOD NO.    8, LENGTH =   91.00000    
                            -----------------------------------------------

                              NUMBER OF TIME STEPS =     1

                               MULTIPLIER FOR DELT =     1.500

                            INITIAL TIME STEP SIZE =   91.00000    

 WELL NO.  LAYER   ROW   COL   STRESS RATE         
 --------------------------------------------------
      1      1     12     11       0.000    
      2      1     16     17     -0.3155E+05
      3      1     11     22       0.000    
      4      1     14     25      -7429.    

      4 WELLS

                 RECHARGE =  1.000000E-03

 REUSING STREAM SEGMENT DATA FROM LAST STRESS PERIOD
 
 SOLVING FOR HEAD 


     5 CALLS TO PCG ROUTINE FOR TIME STEP   1 IN STRESS PERIOD    8
    17 TOTAL ITERATIONS

 OUTPUT CONTROL FOR STRESS PERIOD    8   TIME STEP    1
    SAVE HEAD FOR ALL LAYERS
    SAVE BUDGET



 STREAM LISTING     PERIOD      8   STEP        1

 LAYER ROW COL. STREAM  RCH.  FLOW INTO     FLOW TO   FLOW OUT OF   OVRLND.     DIRECT     STREAM       STREAM     STREAM     STREAM   STREAMBED  STREAMBED
                SEG.NO.  NO.  STRM. RCH.    AQUIFER    STRM. RCH.    RUNOFF     PRECIP       ET          HEAD       DEPTH      WIDTH   CONDCTNC.   GRADIENT

   1   13    1     1     1    1.0000E+05 -2.7887E+04   1.2789E+05  0.000E+00  0.000E+00  0.000E+00  4.84178E+01  1.564E-01  2.000E+01  2.000E+04 -1.394E+00
   1   13    2     1     2    1.2789E+05 -3.7640E+04   1.6553E+05  0.000E+00  0.000E+00  0.000E+00  4.79661E+01  1.821E-01  2.000E+01  2.000E+04 -1.882E+00
   1   14    3     1     3    1.6553E+05 -3.3109E+04   1.9863E+05  0.000E+00  0.000E+00  0.000E+00  4.75141E+01  2.072E-01  2.000E+01  2.000E+04 -1.655E+00
   1   15    4     1     4    1.9863E+05 -3.2332E+04   2.3097E+05  0.000E+00  0.000E+00  0.000E+00  4.70584E+01  2.288E-01  2.000E+01  2.000E+04 -1.617E+00
   1   16    5     1     5    2.3097E+05 -3.3824E+04   2.6479E+05  0.000E+00  0.000E+00  0.000E+00  4.66017E+01  2.494E-01  2.000E+01  2.000E+04 -1.691E+00
   1   16    6     1     6    2.6479E+05 -2.9540E+04   2.9433E+05  0.000E+00  0.000E+00  0.000E+00  4.61430E+01  2.680E-01  2.000E+01  2.000E+04 -1.477E+00
   1   16    7     1     7    2.9433E+05 -2.9341E+04   3.2367E+05  0.000E+00  0.000E+00  0.000E+00  4.56824E+01  2.846E-01  2.000E+01  2.000E+04 -1.467E+00
   1   16    8     1     8    3.2367E+05 -2.9487E+04   3.5316E+05  0.000E+00  0.000E+00  0.000E+00  4.52211E+01  3.006E-01  2.000E+01  2.000E+04 -1.474E+00
   1   16    9     1     9    3.5316E+05 -2.9504E+04   3.8266E+05  0.000E+00  0.000E+00  0.000E+00  4.47592E+01  3.161E-01  2.000E+01  2.000E+04 -1.475E+00
   1   16   10     1    10    3.8266E+05 -2.9414E+04   4.1208E+05  0.000E+00  0.000E+00  0.000E+00  4.42969E+01  3.310E-01  2.000E+01  2.000E+04 -1.471E+00
   1   16   11     1    11    4.1208E+05 -2.9763E+04   4.4184E+05  0.000E+00  0.000E+00  0.000E+00  4.38342E+01  3.456E-01  2.000E+01  2.000E+04 -1.488E+00
   1   16   12     1    12    4.4184E+05 -3.4489E+04   4.7633E+05  0.000E+00  0.000E+00  0.000E+00  4.33723E+01  3.610E-01  2.000E+01  2.000E+04 -1.724E+00
   1   15   13     1    13    4.7633E+05 -3.2619E+04   5.0895E+05  0.000E+00  0.000E+00  0.000E+00  4.29107E+01  3.766E-01  2.000E+01  2.000E+04 -1.631E+00
   1   14   14     1    14    5.0895E+05 -3.2771E+04   5.4172E+05  0.000E+00  0.000E+00  0.000E+00  4.24482E+01  3.914E-01  2.000E+01  2.000E+04 -1.639E+00
   1   13   15     1    15    5.4172E+05 -3.5181E+04   5.7690E+05  0.000E+00  0.000E+00  0.000E+00  4.19859E+01  4.064E-01  2.000E+01  2.000E+04 -1.759E+00
   1   12   16     1    16    5.7690E+05 -4.2209E+04   6.1911E+05  0.000E+00  0.000E+00  0.000E+00  4.15253E+01  4.230E-01  2.000E+01  2.000E+04 -2.110E+00
   1   12   17     1    17    6.1911E+05 -3.2544E+04   6.5165E+05  0.000E+00  0.000E+00  0.000E+00  4.10637E+01  4.387E-01  2.000E+01  2.000E+04 -1.627E+00
   1   12   18     1    18    6.5165E+05 -3.1042E+04   6.8270E+05  0.000E+00  0.000E+00  0.000E+00  4.05994E+01  4.517E-01  2.000E+01  2.000E+04 -1.552E+00
   1   12   19     1    19    6.8270E+05 -3.5436E+04   7.1813E+05  0.000E+00  0.000E+00  0.000E+00  4.01355E+01  4.651E-01  2.000E+01  2.000E+04 -1.772E+00
   1   13   20     1    20    7.1813E+05 -2.5071E+04   7.4320E+05  0.000E+00  0.000E+00  0.000E+00  3.96702E+01  4.770E-01  2.000E+01  2.000E+04 -1.254E+00
   1   14   21     1    21    7.4320E+05 -1.7985E+04   7.6119E+05  0.000E+00  0.000E+00  0.000E+00  3.92013E+01  4.854E-01  2.000E+01  2.000E+04 -8.992E-01
   1   14   22     1    22    7.6119E+05 -1.3323E+03   7.6252E+05  0.000E+00  0.000E+00  0.000E+00  3.87278E+01  4.892E-01  2.000E+01  2.000E+04 -6.662E-02
   1    9   30     2     1    5.0000E+04 -2.6546E+04   7.6546E+04  0.000E+00  0.000E+00  0.000E+00  4.02584E+01  1.334E-01  2.000E+01  2.000E+04 -1.327E+00
   1    9   29     2     2    7.6546E+04 -2.9010E+04   1.0556E+05  0.000E+00  0.000E+00  0.000E+00  4.00410E+01  1.660E-01  2.000E+01  2.000E+04 -1.450E+00
   1    9   28     2     3    1.0556E+05 -3.3294E+04   1.3885E+05  0.000E+00  0.000E+00  0.000E+00  3.98231E+01  1.981E-01  2.000E+01  2.000E+04 -1.665E+00
   1    9   27     2     4    1.3885E+05 -4.7425E+04   1.8628E+05  0.000E+00  0.000E+00  0.000E+00  3.96101E+01  2.351E-01  2.000E+01  2.000E+04 -2.371E+00
   1   10   26     2     5    1.8628E+05 -3.3273E+04   2.1955E+05  0.000E+00  0.000E+00  0.000E+00  3.93935E+01  2.685E-01  2.000E+01  2.000E+04 -1.664E+00
   1   11   25     2     6    2.1955E+05 -2.4685E+04   2.4423E+05  0.000E+00  0.000E+00  0.000E+00  3.91659E+01  2.909E-01  2.000E+01  2.000E+04 -1.234E+00
   1   12   24     2     7    2.4423E+05 -1.7852E+04   2.6209E+05  0.000E+00  0.000E+00  0.000E+00  3.89316E+01  3.066E-01  2.000E+01  2.000E+04 -8.926E-01
   1   13   23     2     8    2.6209E+05 -1.2498E+04   2.7458E+05  0.000E+00  0.000E+00  0.000E+00  3.86925E+01  3.175E-01  2.000E+01  2.000E+04 -6.249E-01
   1   14   22     2     9    2.7458E+05 -6.9009E+03   2.8149E+05  0.000E+00  0.000E+00  0.000E+00  3.84494E+01  3.244E-01  2.000E+01  2.000E+04 -3.450E-01
   1   14   22     3     1    1.0440E+06 -1.4928E+04   1.0589E+06  0.000E+00  0.000E+00  0.000E+00  3.80480E+01  4.925E-01  2.000E+01  2.000E+04 -7.464E-01
   1   15   23     3     2    1.0589E+06 -2.2563E+04   1.0815E+06  0.000E+00  0.000E+00  0.000E+00  3.71644E+01  4.977E-01  2.000E+01  2.000E+04 -1.128E+00
   1   15   24     3     3    1.0815E+06 -1.8570E+04   1.1001E+06  0.000E+00  0.000E+00  0.000E+00  3.62812E+01  5.034E-01  2.000E+01  2.000E+04 -9.285E-01
   1   15   25     3     4    1.1001E+06 -1.7439E+04   1.1175E+06  0.000E+00  0.000E+00  0.000E+00  3.53973E+01  5.084E-01  2.000E+01  2.000E+04 -8.720E-01
   1   15   26     3     5    1.1175E+06 -2.1029E+04   1.1385E+06  0.000E+00  0.000E+00  0.000E+00  3.45137E+01  5.137E-01  2.000E+01  2.000E+04 -1.051E+00
   1   16   27     3     6    1.1385E+06 -2.8837E+04   1.1674E+06  0.000E+00  0.000E+00  0.000E+00  3.36316E+01  5.205E-01  2.000E+01  2.000E+04 -1.442E+00
   1   17   28     3     7    1.1674E+06 -3.6098E+04   1.2035E+06  0.000E+00  0.000E+00  0.000E+00  3.27514E+01  5.292E-01  2.000E+01  2.000E+04 -1.805E+00
   1   18   29     3     8    1.2035E+06 -4.7196E+04   1.2507E+06  0.000E+00  0.000E+00  0.000E+00  3.18736E+01  5.403E-01  2.000E+01  2.000E+04 -2.360E+00
   1   18   30     3     9    1.2507E+06 -4.3672E+04   1.2943E+06  0.000E+00  0.000E+00  0.000E+00  3.09966E+01  5.522E-01  2.000E+01  2.000E+04 -2.184E+00




 HEAD WILL BE SAVED ON UNIT   51 AT END OF TIME STEP    1, STRESS PERIOD    8
1
  VOLUMETRIC BUDGET FOR ENTIRE MODEL AT END OF TIME STEP    1, STRESS PERIOD   8
  ------------------------------------------------------------------------------

     CUMULATIVE VOLUMES      L**3       RATES FOR THIS TIME STEP      L**3/T
     ------------------                 ------------------------

           IN:                                      IN:
           ---                                      ---
             STORAGE =    20261962.0000               STORAGE =         387.2463
       CONSTANT HEAD =   838316288.0000         CONSTANT HEAD =     1156123.0000
               WELLS =           0.0000                 WELLS =           0.0000
            RECHARGE =    17608800.0000              RECHARGE =       27600.0000
      STREAM LEAKAGE =           0.0000        STREAM LEAKAGE =           0.0000

            TOTAL IN =   876187072.0000              TOTAL IN =     1184110.2500

          OUT:                                     OUT:
          ----                                     ----
             STORAGE =      403068.8750               STORAGE =         793.6732
       CONSTANT HEAD =           0.0000         CONSTANT HEAD =           0.0000
               WELLS =    29921752.0000                 WELLS =       38980.2461
            RECHARGE =           0.0000              RECHARGE =           0.0000
      STREAM LEAKAGE =   845862272.0000        STREAM LEAKAGE =     1144335.2500

           TOTAL OUT =   876187072.0000             TOTAL OUT =     1184109.1250

            IN - OUT =           0.0000              IN - OUT =           1.1250

 PERCENT DISCREPANCY =           0.00     PERCENT DISCREPANCY =           0.00






         TIME SUMMARY AT END OF TIME STEP    1 IN STRESS PERIOD    8
                    SECONDS     MINUTES      HOURS       DAYS        YEARS
                    -----------------------------------------------------------
   TIME STEP LENGTH 7.86240E+06 1.31040E+05  2184.0      91.000     0.24914    
 STRESS PERIOD TIME 7.86240E+06 1.31040E+05  2184.0      91.000     0.24914    
         TOTAL TIME 6.30720E+07 1.05120E+06  17520.      730.00      1.9986    
1
1
                            STRESS PERIOD NO.    9, LENGTH =   92.00000    
                            -----------------------------------------------

                              NUMBER OF TIME STEPS =     1

                               MULTIPLIER FOR DELT =     1.500

                            INITIAL TIME STEP SIZE =   92.00000    

 WELL NO.  LAYER   ROW   COL   STRESS RATE         
 --------------------------------------------------
      1      1     12     11       0.000    
      2      1     16     17     -0.2757E+05
      3      1     11     22       0.000    
      4      1     14     25       0.000    

      4 WELLS

                 RECHARGE =  5.000000E-04

 REUSING STREAM SEGMENT DATA FROM LAST STRESS PERIOD
 
 SOLVING FOR HEAD 


     4 CALLS TO PCG ROUTINE FOR TIME STEP   1 IN STRESS PERIOD    9
    14 TOTAL ITERATIONS

 OUTPUT CONTROL FOR STRESS PERIOD    9   TIME STEP    1
    SAVE HEAD FOR ALL LAYERS
    SAVE BUDGET



 STREAM LISTING     PERIOD      9   STEP        1

 LAYER ROW COL. STREAM  RCH.  FLOW INTO     FLOW TO   FLOW OUT OF   OVRLND.     DIRECT     STREAM       STREAM     STREAM     STREAM   STREAMBED  STREAMBED
                SEG.NO.  NO.  STRM. RCH.    AQUIFER    STRM. RCH.    RUNOFF     PRECIP       ET          HEAD       DEPTH      WIDTH   CONDCTNC.   GRADIENT

   1   13    1     1     1    1.0000E+05 -2.7690E+04   1.2769E+05  0.000E+00  0.000E+00  0.000E+00  4.84177E+01  1.564E-01  2.000E+01  2.000E+04 -1.384E+00
   1   13    2     1     2    1.2769E+05 -3.7405E+04   1.6510E+05  0.000E+00  0.000E+00  0.000E+00  4.79659E+01  1.818E-01  2.000E+01  2.000E+04 -1.870E+00
   1   14    3     1     3    1.6510E+05 -3.2878E+04   1.9797E+05  0.000E+00  0.000E+00  0.000E+00  4.75137E+01  2.069E-01  2.000E+01  2.000E+04 -1.644E+00
   1   15    4     1     4    1.9797E+05 -3.2111E+04   2.3008E+05  0.000E+00  0.000E+00  0.000E+00  4.70579E+01  2.284E-01  2.000E+01  2.000E+04 -1.606E+00
   1   16    5     1     5    2.3008E+05 -3.3626E+04   2.6371E+05  0.000E+00  0.000E+00  0.000E+00  4.66011E+01  2.488E-01  2.000E+01  2.000E+04 -1.681E+00
   1   16    6     1     6    2.6371E+05 -2.9370E+04   2.9308E+05  0.000E+00  0.000E+00  0.000E+00  4.61424E+01  2.674E-01  2.000E+01  2.000E+04 -1.468E+00
   1   16    7     1     7    2.9308E+05 -2.9175E+04   3.2226E+05  0.000E+00  0.000E+00  0.000E+00  4.56816E+01  2.839E-01  2.000E+01  2.000E+04 -1.459E+00
   1   16    8     1     8    3.2226E+05 -2.9326E+04   3.5158E+05  0.000E+00  0.000E+00  0.000E+00  4.52203E+01  2.998E-01  2.000E+01  2.000E+04 -1.466E+00
   1   16    9     1     9    3.5158E+05 -2.9352E+04   3.8093E+05  0.000E+00  0.000E+00  0.000E+00  4.47584E+01  3.152E-01  2.000E+01  2.000E+04 -1.468E+00
   1   16   10     1    10    3.8093E+05 -2.9277E+04   4.1021E+05  0.000E+00  0.000E+00  0.000E+00  4.42960E+01  3.301E-01  2.000E+01  2.000E+04 -1.464E+00
   1   16   11     1    11    4.1021E+05 -2.9654E+04   4.3986E+05  0.000E+00  0.000E+00  0.000E+00  4.38333E+01  3.447E-01  2.000E+01  2.000E+04 -1.483E+00
   1   16   12     1    12    4.3986E+05 -3.4444E+04   4.7431E+05  0.000E+00  0.000E+00  0.000E+00  4.33714E+01  3.600E-01  2.000E+01  2.000E+04 -1.722E+00
   1   15   13     1    13    4.7431E+05 -3.2629E+04   5.0694E+05  0.000E+00  0.000E+00  0.000E+00  4.29097E+01  3.756E-01  2.000E+01  2.000E+04 -1.631E+00
   1   14   14     1    14    5.0694E+05 -3.2829E+04   5.3977E+05  0.000E+00  0.000E+00  0.000E+00  4.24473E+01  3.905E-01  2.000E+01  2.000E+04 -1.641E+00
   1   13   15     1    15    5.3977E+05 -3.5222E+04   5.7499E+05  0.000E+00  0.000E+00  0.000E+00  4.19851E+01  4.055E-01  2.000E+01  2.000E+04 -1.761E+00
   1   12   16     1    16    5.7499E+05 -4.2147E+04   6.1713E+05  0.000E+00  0.000E+00  0.000E+00  4.15245E+01  4.222E-01  2.000E+01  2.000E+04 -2.107E+00
   1   12   17     1    17    6.1713E+05 -3.2548E+04   6.4968E+05  0.000E+00  0.000E+00  0.000E+00  4.10629E+01  4.379E-01  2.000E+01  2.000E+04 -1.627E+00
   1   12   18     1    18    6.4968E+05 -3.1044E+04   6.8073E+05  0.000E+00  0.000E+00  0.000E+00  4.05986E+01  4.509E-01  2.000E+01  2.000E+04 -1.552E+00
   1   12   19     1    19    6.8073E+05 -3.5396E+04   7.1612E+05  0.000E+00  0.000E+00  0.000E+00  4.01348E+01  4.643E-01  2.000E+01  2.000E+04 -1.770E+00
   1   13   20     1    20    7.1612E+05 -2.5131E+04   7.4125E+05  0.000E+00  0.000E+00  0.000E+00  3.96694E+01  4.763E-01  2.000E+01  2.000E+04 -1.257E+00
   1   14   21     1    21    7.4125E+05 -1.8081E+04   7.5933E+05  0.000E+00  0.000E+00  0.000E+00  3.92006E+01  4.847E-01  2.000E+01  2.000E+04 -9.041E-01
   1   14   22     1    22    7.5933E+05 -1.4329E+03   7.6077E+05  0.000E+00  0.000E+00  0.000E+00  3.87271E+01  4.885E-01  2.000E+01  2.000E+04 -7.165E-02
   1    9   30     2     1    5.0000E+04 -2.6480E+04   7.6480E+04  0.000E+00  0.000E+00  0.000E+00  4.02584E+01  1.334E-01  2.000E+01  2.000E+04 -1.324E+00
   1    9   29     2     2    7.6480E+04 -2.8947E+04   1.0543E+05  0.000E+00  0.000E+00  0.000E+00  4.00409E+01  1.659E-01  2.000E+01  2.000E+04 -1.447E+00
   1    9   28     2     3    1.0543E+05 -3.3233E+04   1.3866E+05  0.000E+00  0.000E+00  0.000E+00  3.98229E+01  1.979E-01  2.000E+01  2.000E+04 -1.662E+00
   1    9   27     2     4    1.3866E+05 -4.7342E+04   1.8600E+05  0.000E+00  0.000E+00  0.000E+00  3.96099E+01  2.349E-01  2.000E+01  2.000E+04 -2.367E+00
   1   10   26     2     5    1.8600E+05 -3.3304E+04   2.1931E+05  0.000E+00  0.000E+00  0.000E+00  3.93933E+01  2.683E-01  2.000E+01  2.000E+04 -1.665E+00
   1   11   25     2     6    2.1931E+05 -2.4946E+04   2.4425E+05  0.000E+00  0.000E+00  0.000E+00  3.91658E+01  2.908E-01  2.000E+01  2.000E+04 -1.247E+00
   1   12   24     2     7    2.4425E+05 -1.8353E+04   2.6260E+05  0.000E+00  0.000E+00  0.000E+00  3.89318E+01  3.068E-01  2.000E+01  2.000E+04 -9.176E-01
   1   13   23     2     8    2.6260E+05 -1.2930E+04   2.7553E+05  0.000E+00  0.000E+00  0.000E+00  3.86930E+01  3.180E-01  2.000E+01  2.000E+04 -6.465E-01
   1   14   22     2     9    2.7553E+05 -6.9738E+03   2.8251E+05  0.000E+00  0.000E+00  0.000E+00  3.84501E+01  3.251E-01  2.000E+01  2.000E+04 -3.487E-01
   1   14   22     3     1    1.0433E+06 -1.5018E+04   1.0583E+06  0.000E+00  0.000E+00  0.000E+00  3.80478E+01  4.923E-01  2.000E+01  2.000E+04 -7.509E-01
   1   15   23     3     2    1.0583E+06 -2.2838E+04   1.0811E+06  0.000E+00  0.000E+00  0.000E+00  3.71642E+01  4.976E-01  2.000E+01  2.000E+04 -1.142E+00
   1   15   24     3     3    1.0811E+06 -1.9308E+04   1.1004E+06  0.000E+00  0.000E+00  0.000E+00  3.62812E+01  5.034E-01  2.000E+01  2.000E+04 -9.654E-01
   1   15   25     3     4    1.1004E+06 -1.9057E+04   1.1195E+06  0.000E+00  0.000E+00  0.000E+00  3.53976E+01  5.087E-01  2.000E+01  2.000E+04 -9.528E-01
   1   15   26     3     5    1.1195E+06 -2.1882E+04   1.1414E+06  0.000E+00  0.000E+00  0.000E+00  3.45143E+01  5.143E-01  2.000E+01  2.000E+04 -1.094E+00
   1   16   27     3     6    1.1414E+06 -2.9002E+04   1.1704E+06  0.000E+00  0.000E+00  0.000E+00  3.36324E+01  5.213E-01  2.000E+01  2.000E+04 -1.450E+00
   1   17   28     3     7    1.1704E+06 -3.6083E+04   1.2065E+06  0.000E+00  0.000E+00  0.000E+00  3.27522E+01  5.300E-01  2.000E+01  2.000E+04 -1.804E+00
   1   18   29     3     8    1.2065E+06 -4.7111E+04   1.2536E+06  0.000E+00  0.000E+00  0.000E+00  3.18744E+01  5.411E-01  2.000E+01  2.000E+04 -2.356E+00
   1   18   30     3     9    1.2536E+06 -4.3600E+04   1.2972E+06  0.000E+00  0.000E+00  0.000E+00  3.09974E+01  5.529E-01  2.000E+01  2.000E+04 -2.180E+00




 HEAD WILL BE SAVED ON UNIT   51 AT END OF TIME STEP    1, STRESS PERIOD    9
1
  VOLUMETRIC BUDGET FOR ENTIRE MODEL AT END OF TIME STEP    1, STRESS PERIOD   9
  ------------------------------------------------------------------------------

     CUMULATIVE VOLUMES      L**3       RATES FOR THIS TIME STEP      L**3/T
     ------------------                 ------------------------

           IN:                                      IN:
           ---                                      ---
             STORAGE =    20300786.0000               STORAGE =         421.9908
       CONSTANT HEAD =   945095552.0000         CONSTANT HEAD =     1160644.0000
               WELLS =           0.0000                 WELLS =           0.0000
            RECHARGE =    18878400.0000              RECHARGE =       13800.0000
      STREAM LEAKAGE =           0.0000        STREAM LEAKAGE =           0.0000

            TOTAL IN =   984274752.0000              TOTAL IN =     1174866.0000

          OUT:                                     OUT:
          ----                                     ----
             STORAGE =      414728.5938               STORAGE =         126.7359
       CONSTANT HEAD =           0.0000         CONSTANT HEAD =           0.0000
               WELLS =    32457878.0000                 WELLS =       27566.5840
            RECHARGE =           0.0000              RECHARGE =           0.0000
      STREAM LEAKAGE =   951402368.0000        STREAM LEAKAGE =     1147175.0000

           TOTAL OUT =   984274944.0000             TOTAL OUT =     1174868.3750

            IN - OUT =        -192.0000              IN - OUT =          -2.3750

 PERCENT DISCREPANCY =          -0.00     PERCENT DISCREPANCY =          -0.00






         TIME SUMMARY AT END OF TIME STEP    1 IN STRESS PERIOD    9
                    SECONDS     MINUTES      HOURS       DAYS        YEARS
                    -----------------------------------------------------------
   TIME STEP LENGTH 7.94880E+06 1.32480E+05  2208.0      92.000     0.25188    
 STRESS PERIOD TIME 7.94880E+06 1.32480E+05  2208.0      92.000     0.25188    
         TOTAL TIME 7.10208E+07 1.18368E+06  19728.      822.00      2.2505    
1
1
                            STRESS PERIOD NO.   10, LENGTH =   91.00000    
                            -----------------------------------------------

                              NUMBER OF TIME STEPS =     1

                               MULTIPLIER FOR DELT =     1.500

                            INITIAL TIME STEP SIZE =   91.00000    

 WELL NO.  LAYER   ROW   COL   STRESS RATE         
 --------------------------------------------------
      1      1     12     11       0.000    
      2      1     16     17     -0.2965E+05
      3      1     11     22       0.000    
      4      1     14     25     -0.4934E+05

      4 WELLS

                 RECHARGE =  2.000000E-03

 REUSING STREAM SEGMENT DATA FROM LAST STRESS PERIOD
 
 SOLVING FOR HEAD 


     5 CALLS TO PCG ROUTINE FOR TIME STEP   1 IN STRESS PERIOD   10
    18 TOTAL ITERATIONS

 OUTPUT CONTROL FOR STRESS PERIOD   10   TIME STEP    1
    SAVE HEAD FOR ALL LAYERS
    SAVE BUDGET



 STREAM LISTING     PERIOD     10   STEP        1

 LAYER ROW COL. STREAM  RCH.  FLOW INTO     FLOW TO   FLOW OUT OF   OVRLND.     DIRECT     STREAM       STREAM     STREAM     STREAM   STREAMBED  STREAMBED
                SEG.NO.  NO.  STRM. RCH.    AQUIFER    STRM. RCH.    RUNOFF     PRECIP       ET          HEAD       DEPTH      WIDTH   CONDCTNC.   GRADIENT

   1   13    1     1     1    1.0000E+05 -2.8340E+04   1.2834E+05  0.000E+00  0.000E+00  0.000E+00  4.84180E+01  1.566E-01  2.000E+01  2.000E+04 -1.417E+00
   1   13    2     1     2    1.2834E+05 -3.8182E+04   1.6652E+05  0.000E+00  0.000E+00  0.000E+00  4.79667E+01  1.826E-01  2.000E+01  2.000E+04 -1.909E+00
   1   14    3     1     3    1.6652E+05 -3.3637E+04   2.0016E+05  0.000E+00  0.000E+00  0.000E+00  4.75149E+01  2.081E-01  2.000E+01  2.000E+04 -1.682E+00
   1   15    4     1     4    2.0016E+05 -3.2839E+04   2.3300E+05  0.000E+00  0.000E+00  0.000E+00  4.70595E+01  2.300E-01  2.000E+01  2.000E+04 -1.642E+00
   1   16    5     1     5    2.3300E+05 -3.4281E+04   2.6728E+05  0.000E+00  0.000E+00  0.000E+00  4.66030E+01  2.507E-01  2.000E+01  2.000E+04 -1.714E+00
   1   16    6     1     6    2.6728E+05 -2.9938E+04   2.9722E+05  0.000E+00  0.000E+00  0.000E+00  4.61446E+01  2.696E-01  2.000E+01  2.000E+04 -1.497E+00
   1   16    7     1     7    2.9722E+05 -2.9736E+04   3.2695E+05  0.000E+00  0.000E+00  0.000E+00  4.56841E+01  2.863E-01  2.000E+01  2.000E+04 -1.487E+00
   1   16    8     1     8    3.2695E+05 -2.9885E+04   3.5684E+05  0.000E+00  0.000E+00  0.000E+00  4.52229E+01  3.025E-01  2.000E+01  2.000E+04 -1.494E+00
   1   16    9     1     9    3.5684E+05 -2.9903E+04   3.8674E+05  0.000E+00  0.000E+00  0.000E+00  4.47612E+01  3.181E-01  2.000E+01  2.000E+04 -1.495E+00
   1   16   10     1    10    3.8674E+05 -2.9817E+04   4.1656E+05  0.000E+00  0.000E+00  0.000E+00  4.42991E+01  3.331E-01  2.000E+01  2.000E+04 -1.491E+00
   1   16   11     1    11    4.1656E+05 -3.0182E+04   4.4674E+05  0.000E+00  0.000E+00  0.000E+00  4.38365E+01  3.479E-01  2.000E+01  2.000E+04 -1.509E+00
   1   16   12     1    12    4.4674E+05 -3.5005E+04   4.8174E+05  0.000E+00  0.000E+00  0.000E+00  4.33748E+01  3.634E-01  2.000E+01  2.000E+04 -1.750E+00
   1   15   13     1    13    4.8174E+05 -3.3215E+04   5.1496E+05  0.000E+00  0.000E+00  0.000E+00  4.29133E+01  3.792E-01  2.000E+01  2.000E+04 -1.661E+00
   1   14   14     1    14    5.1496E+05 -3.3405E+04   5.4836E+05  0.000E+00  0.000E+00  0.000E+00  4.24510E+01  3.942E-01  2.000E+01  2.000E+04 -1.670E+00
   1   13   15     1    15    5.4836E+05 -3.5798E+04   5.8416E+05  0.000E+00  0.000E+00  0.000E+00  4.19889E+01  4.094E-01  2.000E+01  2.000E+04 -1.790E+00
   1   12   16     1    16    5.8416E+05 -4.2754E+04   6.2692E+05  0.000E+00  0.000E+00  0.000E+00  4.15285E+01  4.262E-01  2.000E+01  2.000E+04 -2.138E+00
   1   12   17     1    17    6.2692E+05 -3.2987E+04   6.5990E+05  0.000E+00  0.000E+00  0.000E+00  4.10670E+01  4.420E-01  2.000E+01  2.000E+04 -1.649E+00
   1   12   18     1    18    6.5990E+05 -3.1434E+04   6.9134E+05  0.000E+00  0.000E+00  0.000E+00  4.06029E+01  4.551E-01  2.000E+01  2.000E+04 -1.572E+00
   1   12   19     1    19    6.9134E+05 -3.5774E+04   7.2711E+05  0.000E+00  0.000E+00  0.000E+00  4.01390E+01  4.686E-01  2.000E+01  2.000E+04 -1.789E+00
   1   13   20     1    20    7.2711E+05 -2.5321E+04   7.5243E+05  0.000E+00  0.000E+00  0.000E+00  3.96738E+01  4.806E-01  2.000E+01  2.000E+04 -1.266E+00
   1   14   21     1    21    7.5243E+05 -1.8079E+04   7.7051E+05  0.000E+00  0.000E+00  0.000E+00  3.92049E+01  4.890E-01  2.000E+01  2.000E+04 -9.040E-01
   1   14   22     1    22    7.7051E+05 -7.7378E+02   7.7129E+05  0.000E+00  0.000E+00  0.000E+00  3.87313E+01  4.926E-01  2.000E+01  2.000E+04 -3.869E-02
   1    9   30     2     1    5.0000E+04 -2.6423E+04   7.6423E+04  0.000E+00  0.000E+00  0.000E+00  4.02584E+01  1.334E-01  2.000E+01  2.000E+04 -1.321E+00
   1    9   29     2     2    7.6423E+04 -2.8866E+04   1.0529E+05  0.000E+00  0.000E+00  0.000E+00  4.00408E+01  1.658E-01  2.000E+01  2.000E+04 -1.443E+00
   1    9   28     2     3    1.0529E+05 -3.3128E+04   1.3842E+05  0.000E+00  0.000E+00  0.000E+00  3.98227E+01  1.977E-01  2.000E+01  2.000E+04 -1.656E+00
   1    9   27     2     4    1.3842E+05 -4.7280E+04   1.8570E+05  0.000E+00  0.000E+00  0.000E+00  3.96096E+01  2.346E-01  2.000E+01  2.000E+04 -2.364E+00
   1   10   26     2     5    1.8570E+05 -3.2460E+04   2.1816E+05  0.000E+00  0.000E+00  0.000E+00  3.93927E+01  2.677E-01  2.000E+01  2.000E+04 -1.623E+00
   1   11   25     2     6    2.1816E+05 -2.2605E+04   2.4076E+05  0.000E+00  0.000E+00  0.000E+00  3.91641E+01  2.891E-01  2.000E+01  2.000E+04 -1.130E+00
   1   12   24     2     7    2.4076E+05 -1.4510E+04   2.5527E+05  0.000E+00  0.000E+00  0.000E+00  3.89279E+01  3.029E-01  2.000E+01  2.000E+04 -7.255E-01
   1   13   23     2     8    2.5527E+05 -9.7249E+03   2.6500E+05  0.000E+00  0.000E+00  0.000E+00  3.86867E+01  3.117E-01  2.000E+01  2.000E+04 -4.862E-01
   1   14   22     2     9    2.6500E+05 -6.5495E+03   2.7155E+05  0.000E+00  0.000E+00  0.000E+00  3.84425E+01  3.175E-01  2.000E+01  2.000E+04 -3.275E-01
   1   14   22     3     1    1.0428E+06 -1.4447E+04   1.0573E+06  0.000E+00  0.000E+00  0.000E+00  3.80476E+01  4.921E-01  2.000E+01  2.000E+04 -7.223E-01
   1   15   23     3     2    1.0573E+06 -2.1052E+04   1.0783E+06  0.000E+00  0.000E+00  0.000E+00  3.71637E+01  4.970E-01  2.000E+01  2.000E+04 -1.053E+00
   1   15   24     3     3    1.0783E+06 -1.4200E+04   1.0925E+06  0.000E+00  0.000E+00  0.000E+00  3.62797E+01  5.020E-01  2.000E+01  2.000E+04 -7.100E-01
   1   15   25     3     4    1.0925E+06 -7.9868E+03   1.1005E+06  0.000E+00  0.000E+00  0.000E+00  3.53939E+01  5.050E-01  2.000E+01  2.000E+04 -3.993E-01
   1   15   26     3     5    1.1005E+06 -1.5757E+04   1.1163E+06  0.000E+00  0.000E+00  0.000E+00  3.45083E+01  5.083E-01  2.000E+01  2.000E+04 -7.878E-01
   1   16   27     3     6    1.1163E+06 -2.7392E+04   1.1437E+06  0.000E+00  0.000E+00  0.000E+00  3.36253E+01  5.142E-01  2.000E+01  2.000E+04 -1.370E+00
   1   17   28     3     7    1.1437E+06 -3.5648E+04   1.1793E+06  0.000E+00  0.000E+00  0.000E+00  3.27450E+01  5.228E-01  2.000E+01  2.000E+04 -1.782E+00
   1   18   29     3     8    1.1793E+06 -4.7165E+04   1.2265E+06  0.000E+00  0.000E+00  0.000E+00  3.18672E+01  5.339E-01  2.000E+01  2.000E+04 -2.358E+00
   1   18   30     3     9    1.2265E+06 -4.3628E+04   1.2701E+06  0.000E+00  0.000E+00  0.000E+00  3.09903E+01  5.459E-01  2.000E+01  2.000E+04 -2.181E+00




 HEAD WILL BE SAVED ON UNIT   51 AT END OF TIME STEP    1, STRESS PERIOD   10
1
  VOLUMETRIC BUDGET FOR ENTIRE MODEL AT END OF TIME STEP    1, STRESS PERIOD  10
  ------------------------------------------------------------------------------

     CUMULATIVE VOLUMES      L**3       RATES FOR THIS TIME STEP      L**3/T
     ------------------                 ------------------------

           IN:                                      IN:
           ---                                      ---
             STORAGE =    20344090.0000               STORAGE =         475.8680
       CONSTANT HEAD =  1049289152.0000         CONSTANT HEAD =     1144984.8750
               WELLS =           0.0000                 WELLS =           0.0000
            RECHARGE =    23901600.0000              RECHARGE =       55200.0000
      STREAM LEAKAGE =           0.0000        STREAM LEAKAGE =           0.0000

            TOTAL IN =  1093534848.0000              TOTAL IN =     1200660.7500

          OUT:                                     OUT:
          ----                                     ----
             STORAGE =      556775.3125               STORAGE =        1560.9529
       CONSTANT HEAD =           0.0000         CONSTANT HEAD =           0.0000
               WELLS =    39645992.0000                 WELLS =       78990.2500
            RECHARGE =           0.0000              RECHARGE =           0.0000
      STREAM LEAKAGE =  1053332224.0000        STREAM LEAKAGE =     1120108.5000

           TOTAL OUT =  1093534976.0000             TOTAL OUT =     1200659.7500

            IN - OUT =        -128.0000              IN - OUT =           1.0000

 PERCENT DISCREPANCY =          -0.00     PERCENT DISCREPANCY =           0.00






         TIME SUMMARY AT END OF TIME STEP    1 IN STRESS PERIOD   10
                    SECONDS     MINUTES      HOURS       DAYS        YEARS
                    -----------------------------------------------------------
   TIME STEP LENGTH 7.86240E+06 1.31040E+05  2184.0      91.000     0.24914    
 STRESS PERIOD TIME 7.86240E+06 1.31040E+05  2184.0      91.000     0.24914    
         TOTAL TIME 7.88832E+07 1.31472E+06  21912.      913.00      2.4997    
1
1
                            STRESS PERIOD NO.   11, LENGTH =   91.00000    
                            -----------------------------------------------

                              NUMBER OF TIME STEPS =     1

                               MULTIPLIER FOR DELT =     1.500

                            INITIAL TIME STEP SIZE =   91.00000    

 WELL NO.  LAYER   ROW   COL   STRESS RATE         
 --------------------------------------------------
      1      1     12     11       0.000    
      2      1     16     17     -0.1857E+05
      3      1     11     22       0.000    
      4      1     14     25       0.000    

      4 WELLS

                 RECHARGE =   0.00000    

 REUSING STREAM SEGMENT DATA FROM LAST STRESS PERIOD
 
 SOLVING FOR HEAD 


     5 CALLS TO PCG ROUTINE FOR TIME STEP   1 IN STRESS PERIOD   11
    18 TOTAL ITERATIONS

 OUTPUT CONTROL FOR STRESS PERIOD   11   TIME STEP    1
    SAVE HEAD FOR ALL LAYERS
    SAVE BUDGET



 STREAM LISTING     PERIOD     11   STEP        1

 LAYER ROW COL. STREAM  RCH.  FLOW INTO     FLOW TO   FLOW OUT OF   OVRLND.     DIRECT     STREAM       STREAM     STREAM     STREAM   STREAMBED  STREAMBED
                SEG.NO.  NO.  STRM. RCH.    AQUIFER    STRM. RCH.    RUNOFF     PRECIP       ET          HEAD       DEPTH      WIDTH   CONDCTNC.   GRADIENT

   1   13    1     1     1    1.0000E+05 -2.7502E+04   1.2750E+05  0.000E+00  0.000E+00  0.000E+00  4.84176E+01  1.563E-01  2.000E+01  2.000E+04 -1.375E+00
   1   13    2     1     2    1.2750E+05 -3.7183E+04   1.6468E+05  0.000E+00  0.000E+00  0.000E+00  4.79657E+01  1.816E-01  2.000E+01  2.000E+04 -1.859E+00
   1   14    3     1     3    1.6468E+05 -3.2660E+04   1.9735E+05  0.000E+00  0.000E+00  0.000E+00  4.75133E+01  2.065E-01  2.000E+01  2.000E+04 -1.633E+00
   1   15    4     1     4    1.9735E+05 -3.1903E+04   2.2925E+05  0.000E+00  0.000E+00  0.000E+00  4.70574E+01  2.279E-01  2.000E+01  2.000E+04 -1.595E+00
   1   16    5     1     5    2.2925E+05 -3.3444E+04   2.6269E+05  0.000E+00  0.000E+00  0.000E+00  4.66005E+01  2.482E-01  2.000E+01  2.000E+04 -1.672E+00
   1   16    6     1     6    2.6269E+05 -2.9219E+04   2.9191E+05  0.000E+00  0.000E+00  0.000E+00  4.61417E+01  2.667E-01  2.000E+01  2.000E+04 -1.461E+00
   1   16    7     1     7    2.9191E+05 -2.9035E+04   3.2095E+05  0.000E+00  0.000E+00  0.000E+00  4.56809E+01  2.832E-01  2.000E+01  2.000E+04 -1.452E+00
   1   16    8     1     8    3.2095E+05 -2.9200E+04   3.5015E+05  0.000E+00  0.000E+00  0.000E+00  4.52195E+01  2.991E-01  2.000E+01  2.000E+04 -1.460E+00
   1   16    9     1     9    3.5015E+05 -2.9248E+04   3.7939E+05  0.000E+00  0.000E+00  0.000E+00  4.47576E+01  3.144E-01  2.000E+01  2.000E+04 -1.462E+00
   1   16   10     1    10    3.7939E+05 -2.9212E+04   4.0861E+05  0.000E+00  0.000E+00  0.000E+00  4.42952E+01  3.293E-01  2.000E+01  2.000E+04 -1.461E+00
   1   16   11     1    11    4.0861E+05 -2.9666E+04   4.3827E+05  0.000E+00  0.000E+00  0.000E+00  4.38325E+01  3.439E-01  2.000E+01  2.000E+04 -1.483E+00
   1   16   12     1    12    4.3827E+05 -3.4665E+04   4.7294E+05  0.000E+00  0.000E+00  0.000E+00  4.33707E+01  3.593E-01  2.000E+01  2.000E+04 -1.733E+00
   1   15   13     1    13    4.7294E+05 -3.3008E+04   5.0594E+05  0.000E+00  0.000E+00  0.000E+00  4.29092E+01  3.751E-01  2.000E+01  2.000E+04 -1.650E+00
   1   14   14     1    14    5.0594E+05 -3.3327E+04   5.3927E+05  0.000E+00  0.000E+00  0.000E+00  4.24470E+01  3.901E-01  2.000E+01  2.000E+04 -1.666E+00
   1   13   15     1    15    5.3927E+05 -3.5670E+04   5.7494E+05  0.000E+00  0.000E+00  0.000E+00  4.19849E+01  4.054E-01  2.000E+01  2.000E+04 -1.783E+00
   1   12   16     1    16    5.7494E+05 -4.2322E+04   6.1726E+05  0.000E+00  0.000E+00  0.000E+00  4.15245E+01  4.222E-01  2.000E+01  2.000E+04 -2.116E+00
   1   12   17     1    17    6.1726E+05 -3.2815E+04   6.5008E+05  0.000E+00  0.000E+00  0.000E+00  4.10630E+01  4.380E-01  2.000E+01  2.000E+04 -1.641E+00
   1   12   18     1    18    6.5008E+05 -3.1282E+04   6.8136E+05  0.000E+00  0.000E+00  0.000E+00  4.05989E+01  4.511E-01  2.000E+01  2.000E+04 -1.564E+00
   1   12   19     1    19    6.8136E+05 -3.5526E+04   7.1689E+05  0.000E+00  0.000E+00  0.000E+00  4.01350E+01  4.646E-01  2.000E+01  2.000E+04 -1.776E+00
   1   13   20     1    20    7.1689E+05 -2.5456E+04   7.4234E+05  0.000E+00  0.000E+00  0.000E+00  3.96698E+01  4.766E-01  2.000E+01  2.000E+04 -1.273E+00
   1   14   21     1    21    7.4234E+05 -1.8424E+04   7.6077E+05  0.000E+00  0.000E+00  0.000E+00  3.92011E+01  4.852E-01  2.000E+01  2.000E+04 -9.212E-01
   1   14   22     1    22    7.6077E+05 -1.4620E+03   7.6223E+05  0.000E+00  0.000E+00  0.000E+00  3.87277E+01  4.890E-01  2.000E+01  2.000E+04 -7.310E-02
   1    9   30     2     1    5.0000E+04 -2.6325E+04   7.6325E+04  0.000E+00  0.000E+00  0.000E+00  4.02583E+01  1.333E-01  2.000E+01  2.000E+04 -1.316E+00
   1    9   29     2     2    7.6325E+04 -2.8793E+04   1.0512E+05  0.000E+00  0.000E+00  0.000E+00  4.00407E+01  1.657E-01  2.000E+01  2.000E+04 -1.440E+00
   1    9   28     2     3    1.0512E+05 -3.3076E+04   1.3819E+05  0.000E+00  0.000E+00  0.000E+00  3.98225E+01  1.975E-01  2.000E+01  2.000E+04 -1.654E+00
   1    9   27     2     4    1.3819E+05 -4.7156E+04   1.8535E+05  0.000E+00  0.000E+00  0.000E+00  3.96094E+01  2.344E-01  2.000E+01  2.000E+04 -2.358E+00
   1   10   26     2     5    1.8535E+05 -3.3104E+04   2.1846E+05  0.000E+00  0.000E+00  0.000E+00  3.93927E+01  2.677E-01  2.000E+01  2.000E+04 -1.655E+00
   1   11   25     2     6    2.1846E+05 -2.4750E+04   2.4321E+05  0.000E+00  0.000E+00  0.000E+00  3.91651E+01  2.901E-01  2.000E+01  2.000E+04 -1.238E+00
   1   12   24     2     7    2.4321E+05 -1.8186E+04   2.6139E+05  0.000E+00  0.000E+00  0.000E+00  3.89310E+01  3.060E-01  2.000E+01  2.000E+04 -9.093E-01
   1   13   23     2     8    2.6139E+05 -1.2836E+04   2.7423E+05  0.000E+00  0.000E+00  0.000E+00  3.86922E+01  3.172E-01  2.000E+01  2.000E+04 -6.418E-01
   1   14   22     2     9    2.7423E+05 -7.0319E+03   2.8126E+05  0.000E+00  0.000E+00  0.000E+00  3.84492E+01  3.242E-01  2.000E+01  2.000E+04 -3.516E-01
   1   14   22     3     1    1.0435E+06 -1.5057E+04   1.0585E+06  0.000E+00  0.000E+00  0.000E+00  3.80479E+01  4.923E-01  2.000E+01  2.000E+04 -7.529E-01
   1   15   23     3     2    1.0585E+06 -2.2929E+04   1.0815E+06  0.000E+00  0.000E+00  0.000E+00  3.71643E+01  4.977E-01  2.000E+01  2.000E+04 -1.146E+00
   1   15   24     3     3    1.0815E+06 -1.9271E+04   1.1007E+06  0.000E+00  0.000E+00  0.000E+00  3.62813E+01  5.035E-01  2.000E+01  2.000E+04 -9.636E-01
   1   15   25     3     4    1.1007E+06 -1.8954E+04   1.1197E+06  0.000E+00  0.000E+00  0.000E+00  3.53977E+01  5.088E-01  2.000E+01  2.000E+04 -9.477E-01
   1   15   26     3     5    1.1197E+06 -2.1729E+04   1.1414E+06  0.000E+00  0.000E+00  0.000E+00  3.45144E+01  5.144E-01  2.000E+01  2.000E+04 -1.086E+00
   1   16   27     3     6    1.1414E+06 -2.8852E+04   1.1703E+06  0.000E+00  0.000E+00  0.000E+00  3.36324E+01  5.212E-01  2.000E+01  2.000E+04 -1.443E+00
   1   17   28     3     7    1.1703E+06 -3.5933E+04   1.2062E+06  0.000E+00  0.000E+00  0.000E+00  3.27522E+01  5.300E-01  2.000E+01  2.000E+04 -1.797E+00
   1   18   29     3     8    1.2062E+06 -4.6973E+04   1.2532E+06  0.000E+00  0.000E+00  0.000E+00  3.18743E+01  5.410E-01  2.000E+01  2.000E+04 -2.349E+00
   1   18   30     3     9    1.2532E+06 -4.3473E+04   1.2967E+06  0.000E+00  0.000E+00  0.000E+00  3.09973E+01  5.528E-01  2.000E+01  2.000E+04 -2.174E+00




 HEAD WILL BE SAVED ON UNIT   51 AT END OF TIME STEP    1, STRESS PERIOD   11
1
  VOLUMETRIC BUDGET FOR ENTIRE MODEL AT END OF TIME STEP    1, STRESS PERIOD  11
  ------------------------------------------------------------------------------

     CUMULATIVE VOLUMES      L**3       RATES FOR THIS TIME STEP      L**3/T
     ------------------                 ------------------------

           IN:                                      IN:
           ---                                      ---
             STORAGE =    20508934.0000               STORAGE =        1811.4807
       CONSTANT HEAD =  1155216128.0000         CONSTANT HEAD =     1164032.6250
               WELLS =           0.0000                 WELLS =           0.0000
            RECHARGE =    23901600.0000              RECHARGE =           0.0000
      STREAM LEAKAGE =           0.0000        STREAM LEAKAGE =           0.0000

            TOTAL IN =  1199626624.0000              TOTAL IN =     1165844.1250

          OUT:                                     OUT:
          ----                                     ----
             STORAGE =      613055.8750               STORAGE =         618.4677
       CONSTANT HEAD =           0.0000         CONSTANT HEAD =           0.0000
               WELLS =    41335428.0000                 WELLS =       18565.2109
            RECHARGE =           0.0000              RECHARGE =           0.0000
      STREAM LEAKAGE =  1157678336.0000        STREAM LEAKAGE =     1146660.2500

           TOTAL OUT =  1199626752.0000             TOTAL OUT =     1165844.0000

            IN - OUT =        -128.0000              IN - OUT =           0.1250

 PERCENT DISCREPANCY =          -0.00     PERCENT DISCREPANCY =           0.00






         TIME SUMMARY AT END OF TIME STEP    1 IN STRESS PERIOD   11
                    SECONDS     MINUTES      HOURS       DAYS        YEARS
                    -----------------------------------------------------------
   TIME STEP LENGTH 7.86240E+06 1.31040E+05  2184.0      91.000     0.24914    
 STRESS PERIOD TIME 7.86240E+06 1.31040E+05  2184.0      91.000     0.24914    
         TOTAL TIME 8.67456E+07 1.44576E+06  24096.      1004.0      2.7488    
1
1
                            STRESS PERIOD NO.   12, LENGTH =   91.00000    
                            -----------------------------------------------

                              NUMBER OF TIME STEPS =     1

                               MULTIPLIER FOR DELT =     1.500

                            INITIAL TIME STEP SIZE =   91.00000    

 WELL NO.  LAYER   ROW   COL   STRESS RATE         
 --------------------------------------------------
      1      1     12     11       0.000    
      2      1     16     17     -0.3155E+05
      3      1     11     22       0.000    
      4      1     14     25      -7429.    

      4 WELLS

                 RECHARGE =  1.000000E-03

 REUSING STREAM SEGMENT DATA FROM LAST STRESS PERIOD
 
 SOLVING FOR HEAD 


     5 CALLS TO PCG ROUTINE FOR TIME STEP   1 IN STRESS PERIOD   12
    17 TOTAL ITERATIONS

 OUTPUT CONTROL FOR STRESS PERIOD   12   TIME STEP    1
    SAVE HEAD FOR ALL LAYERS
    SAVE BUDGET



 STREAM LISTING     PERIOD     12   STEP        1

 LAYER ROW COL. STREAM  RCH.  FLOW INTO     FLOW TO   FLOW OUT OF   OVRLND.     DIRECT     STREAM       STREAM     STREAM     STREAM   STREAMBED  STREAMBED
                SEG.NO.  NO.  STRM. RCH.    AQUIFER    STRM. RCH.    RUNOFF     PRECIP       ET          HEAD       DEPTH      WIDTH   CONDCTNC.   GRADIENT

   1   13    1     1     1    1.0000E+05 -2.7887E+04   1.2789E+05  0.000E+00  0.000E+00  0.000E+00  4.84178E+01  1.564E-01  2.000E+01  2.000E+04 -1.394E+00
   1   13    2     1     2    1.2789E+05 -3.7640E+04   1.6553E+05  0.000E+00  0.000E+00  0.000E+00  4.79661E+01  1.821E-01  2.000E+01  2.000E+04 -1.882E+00
   1   14    3     1     3    1.6553E+05 -3.3109E+04   1.9863E+05  0.000E+00  0.000E+00  0.000E+00  4.75141E+01  2.072E-01  2.000E+01  2.000E+04 -1.655E+00
   1   15    4     1     4    1.9863E+05 -3.2332E+04   2.3097E+05  0.000E+00  0.000E+00  0.000E+00  4.70584E+01  2.288E-01  2.000E+01  2.000E+04 -1.617E+00
   1   16    5     1     5    2.3097E+05 -3.3824E+04   2.6479E+05  0.000E+00  0.000E+00  0.000E+00  4.66017E+01  2.494E-01  2.000E+01  2.000E+04 -1.691E+00
   1   16    6     1     6    2.6479E+05 -2.9540E+04   2.9433E+05  0.000E+00  0.000E+00  0.000E+00  4.61430E+01  2.680E-01  2.000E+01  2.000E+04 -1.477E+00
   1   16    7     1     7    2.9433E+05 -2.9341E+04   3.2367E+05  0.000E+00  0.000E+00  0.000E+00  4.56824E+01  2.846E-01  2.000E+01  2.000E+04 -1.467E+00
   1   16    8     1     8    3.2367E+05 -2.9487E+04   3.5316E+05  0.000E+00  0.000E+00  0.000E+00  4.52211E+01  3.006E-01  2.000E+01  2.000E+04 -1.474E+00
   1   16    9     1     9    3.5316E+05 -2.9504E+04   3.8266E+05  0.000E+00  0.000E+00  0.000E+00  4.47592E+01  3.161E-01  2.000E+01  2.000E+04 -1.475E+00
   1   16   10     1    10    3.8266E+05 -2.9414E+04   4.1208E+05  0.000E+00  0.000E+00  0.000E+00  4.42969E+01  3.310E-01  2.000E+01  2.000E+04 -1.471E+00
   1   16   11     1    11    4.1208E+05 -2.9763E+04   4.4184E+05  0.000E+00  0.000E+00  0.000E+00  4.38342E+01  3.456E-01  2.000E+01  2.000E+04 -1.488E+00
   1   16   12     1    12    4.4184E+05 -3.4489E+04   4.7633E+05  0.000E+00  0.000E+00  0.000E+00  4.33723E+01  3.610E-01  2.000E+01  2.000E+04 -1.724E+00
   1   15   13     1    13    4.7633E+05 -3.2619E+04   5.0895E+05  0.000E+00  0.000E+00  0.000E+00  4.29107E+01  3.766E-01  2.000E+01  2.000E+04 -1.631E+00
   1   14   14     1    14    5.0895E+05 -3.2771E+04   5.4172E+05  0.000E+00  0.000E+00  0.000E+00  4.24482E+01  3.914E-01  2.000E+01  2.000E+04 -1.639E+00
   1   13   15     1    15    5.4172E+05 -3.5181E+04   5.7690E+05  0.000E+00  0.000E+00  0.000E+00  4.19859E+01  4.064E-01  2.000E+01  2.000E+04 -1.759E+00
   1   12   16     1    16    5.7690E+05 -4.2209E+04   6.1911E+05  0.000E+00  0.000E+00  0.000E+00  4.15253E+01  4.230E-01  2.000E+01  2.000E+04 -2.110E+00
   1   12   17     1    17    6.1911E+05 -3.2544E+04   6.5165E+05  0.000E+00  0.000E+00  0.000E+00  4.10637E+01  4.387E-01  2.000E+01  2.000E+04 -1.627E+00
   1   12   18     1    18    6.5165E+05 -3.1042E+04   6.8270E+05  0.000E+00  0.000E+00  0.000E+00  4.05994E+01  4.517E-01  2.000E+01  2.000E+04 -1.552E+00
   1   12   19     1    19    6.8270E+05 -3.5436E+04   7.1813E+05  0.000E+00  0.000E+00  0.000E+00  4.01355E+01  4.651E-01  2.000E+01  2.000E+04 -1.772E+00
   1   13   20     1    20    7.1813E+05 -2.5071E+04   7.4320E+05  0.000E+00  0.000E+00  0.000E+00  3.96702E+01  4.770E-01  2.000E+01  2.000E+04 -1.254E+00
   1   14   21     1    21    7.4320E+05 -1.7985E+04   7.6119E+05  0.000E+00  0.000E+00  0.000E+00  3.92013E+01  4.854E-01  2.000E+01  2.000E+04 -8.992E-01
   1   14   22     1    22    7.6119E+05 -1.3323E+03   7.6252E+05  0.000E+00  0.000E+00  0.000E+00  3.87278E+01  4.892E-01  2.000E+01  2.000E+04 -6.662E-02
   1    9   30     2     1    5.0000E+04 -2.6546E+04   7.6546E+04  0.000E+00  0.000E+00  0.000E+00  4.02584E+01  1.334E-01  2.000E+01  2.000E+04 -1.327E+00
   1    9   29     2     2    7.6546E+04 -2.9010E+04   1.0556E+05  0.000E+00  0.000E+00  0.000E+00  4.00410E+01  1.660E-01  2.000E+01  2.000E+04 -1.450E+00
   1    9   28     2     3    1.0556E+05 -3.3294E+04   1.3885E+05  0.000E+00  0.000E+00  0.000E+00  3.98231E+01  1.981E-01  2.000E+01  2.000E+04 -1.665E+00
   1    9   27     2     4    1.3885E+05 -4.7425E+04   1.8628E+05  0.000E+00  0.000E+00  0.000E+00  3.96101E+01  2.351E-01  2.000E+01  2.000E+04 -2.371E+00
   1   10   26     2     5    1.8628E+05 -3.3273E+04   2.1955E+05  0.000E+00  0.000E+00  0.000E+00  3.93935E+01  2.685E-01  2.000E+01  2.000E+04 -1.664E+00
   1   11   25     2     6    2.1955E+05 -2.4685E+04   2.4423E+05  0.000E+00  0.000E+00  0.000E+00  3.91659E+01  2.909E-01  2.000E+01  2.000E+04 -1.234E+00
   1   12   24     2     7    2.4423E+05 -1.7852E+04   2.6209E+05  0.000E+00  0.000E+00  0.000E+00  3.89316E+01  3.066E-01  2.000E+01  2.000E+04 -8.926E-01
   1   13   23     2     8    2.6209E+05 -1.2498E+04   2.7458E+05  0.000E+00  0.000E+00  0.000E+00  3.86925E+01  3.175E-01  2.000E+01  2.000E+04 -6.249E-01
   1   14   22     2     9    2.7458E+05 -6.9009E+03   2.8149E+05  0.000E+00  0.000E+00  0.000E+00  3.84494E+01  3.244E-01  2.000E+01  2.000E+04 -3.450E-01
   1   14   22     3     1    1.0440E+06 -1.4928E+04   1.0589E+06  0.000E+00  0.000E+00  0.000E+00  3.80480E+01  4.925E-01  2.000E+01  2.000E+04 -7.464E-01
   1   15   23     3     2    1.0589E+06 -2.2563E+04   1.0815E+06  0.000E+00  0.000E+00  0.000E+00  3.71644E+01  4.977E-01  2.000E+01  2.000E+04 -1.128E+00
   1   15   24     3     3    1.0815E+06 -1.8570E+04   1.1001E+06  0.000E+00  0.000E+00  0.000E+00  3.62812E+01  5.034E-01  2.000E+01  2.000E+04 -9.285E-01
   1   15   25     3     4    1.1001E+06 -1.7439E+04   1.1175E+06  0.000E+00  0.000E+00  0.000E+00  3.53973E+01  5.084E-01  2.000E+01  2.000E+04 -8.720E-01
   1   15   26     3     5    1.1175E+06 -2.1029E+04   1.1385E+06  0.000E+00  0.000E+00  0.000E+00  3.45137E+01  5.137E-01  2.000E+01  2.000E+04 -1.051E+00
   1   16   27     3     6    1.1385E+06 -2.8837E+04   1.1674E+06  0.000E+00  0.000E+00  0.000E+00  3.36316E+01  5.205E-01  2.000E+01  2.000E+04 -1.442E+00
   1   17   28     3     7    1.1674E+06 -3.6098E+04   1.2035E+06  0.000E+00  0.000E+00  0.000E+00  3.27514E+01  5.292E-01  2.000E+01  2.000E+04 -1.805E+00
   1   18   29     3     8    1.2035E+06 -4.7196E+04   1.2507E+06  0.000E+00  0.000E+00  0.000E+00  3.18736E+01  5.403E-01  2.000E+01  2.000E+04 -2.360E+00
   1   18   30     3     9    1.2507E+06 -4.3672E+04   1.2943E+06  0.000E+00  0.000E+00  0.000E+00  3.09966E+01  5.522E-01  2.000E+01  2.000E+04 -2.184E+00




 HEAD WILL BE SAVED ON UNIT   51 AT END OF TIME STEP    1, STRESS PERIOD   12
1
  VOLUMETRIC BUDGET FOR ENTIRE MODEL AT END OF TIME STEP    1, STRESS PERIOD  12
  ------------------------------------------------------------------------------

     CUMULATIVE VOLUMES      L**3       RATES FOR THIS TIME STEP      L**3/T
     ------------------                 ------------------------

           IN:                                      IN:
           ---                                      ---
             STORAGE =    20544174.0000               STORAGE =         387.2462
       CONSTANT HEAD =  1260423296.0000         CONSTANT HEAD =     1156123.0000
               WELLS =           0.0000                 WELLS =           0.0000
            RECHARGE =    26413200.0000              RECHARGE =       27600.0000
      STREAM LEAKAGE =           0.0000        STREAM LEAKAGE =           0.0000

            TOTAL IN =  1307380608.0000              TOTAL IN =     1184110.2500

          OUT:                                     OUT:
          ----                                     ----
             STORAGE =      685280.1875               STORAGE =         793.6738
       CONSTANT HEAD =           0.0000         CONSTANT HEAD =           0.0000
               WELLS =    44882632.0000                 WELLS =       38980.2461
            RECHARGE =           0.0000              RECHARGE =           0.0000
      STREAM LEAKAGE =  1261812864.0000        STREAM LEAKAGE =     1144335.2500

           TOTAL OUT =  1307380864.0000             TOTAL OUT =     1184109.1250

            IN - OUT =        -256.0000              IN - OUT =           1.1250

 PERCENT DISCREPANCY =          -0.00     PERCENT DISCREPANCY =           0.00






         TIME SUMMARY AT END OF TIME STEP    1 IN STRESS PERIOD   12
                    SECONDS     MINUTES      HOURS       DAYS        YEARS
                    -----------------------------------------------------------
   TIME STEP LENGTH 7.86240E+06 1.31040E+05  2184.0      91.000     0.24914    
 STRESS PERIOD TIME 7.86240E+06 1.31040E+05  2184.0      91.000     0.24914    
         TOTAL TIME 9.46080E+07 1.57680E+06  26280.      1095.0      2.9979    
1

 Run end date and time (yyyy/mm/dd hh:mm:ss): 2016/09/23 15:43:47
 Elapsed run time:  0.109 Seconds

