                                  MODFLOW-2005     
      U.S. GEOLOGICAL SURVEY MODULAR FINITE-DIFFERENCE GROUND-WATER FLOW MODEL
                            VERSION 1.11.00 8/8/2013

 LIST FILE: supply2.lst
                         UNIT   10

 OPENING supply2.dis
 FILE TYPE:DIS   UNIT   11   STATUS:OLD    
 FORMAT:FORMATTED              ACCESS:SEQUENTIAL          

 OPENING supply2.ba6
 FILE TYPE:BAS6   UNIT   12   STATUS:OLD    
 FORMAT:FORMATTED              ACCESS:SEQUENTIAL          

 OPENING supply2.bc6
 FILE TYPE:BCF6   UNIT   13   STATUS:OLD    
 FORMAT:FORMATTED              ACCESS:SEQUENTIAL          

 OPENING supply2.rch
 FILE TYPE:RCH   UNIT   15   STATUS:OLD    
 FORMAT:FORMATTED              ACCESS:SEQUENTIAL          
#STR     16  supply2.str                                                                                                                                                                                                                                                                                    

 OPENING supply2.sfr
 FILE TYPE:SFR   UNIT   16   STATUS:OLD    
 FORMAT:FORMATTED              ACCESS:SEQUENTIAL          

 OPENING supply2.sp1.oc
 FILE TYPE:OC   UNIT   17   STATUS:OLD    
 FORMAT:FORMATTED              ACCESS:SEQUENTIAL          

 OPENING supply2.pcg
 FILE TYPE:PCG   UNIT   18   STATUS:OLD    
 FORMAT:FORMATTED              ACCESS:SEQUENTIAL          

 OPENING supply2.wel
 FILE TYPE:WEL   UNIT   20   STATUS:OLD    
 FORMAT:FORMATTED              ACCESS:SEQUENTIAL          
#GWM     19   supply2.gwm                                                                                                                                                                                                                                                                                   
#DATA    20   supply2.gwmwell                                                                                                                                                                                                                                                                               

 OPENING supply2.sfrout
 FILE TYPE:DATA   UNIT   81   STATUS:UNKNOWN
 FORMAT:FORMATTED              ACCESS:SEQUENTIAL          

 OPENING supply2.hds
 FILE TYPE:DATA   UNIT   51   STATUS:UNKNOWN
 FORMAT:FORMATTED              ACCESS:SEQUENTIAL          

 BAS -- BASIC PACKAGE, VERSION 7, 5/2/2005 INPUT READ FROM UNIT   12
 
 MODFLOW was compiled using mixed precision
 Precision of REAL variables:           6
 Precision of DOUBLE PRECISION variables:          15

 DISCRETIZATION INPUT DATA READ FROM UNIT   11
    1 LAYERS        25 ROWS        30 COLUMNS
   12 STRESS PERIOD(S) IN SIMULATION
 MODEL TIME UNIT IS DAYS
 MODEL LENGTH UNIT IS UNDEFINED
  Confining bed flag for each layer:
   0

                     DELR =   200.000    

                     DELC =   200.000    

 TOP ELEVATION OF LAYER 1 =  100.0000    

   MODEL LAYER BOTTOM EL. =   0.00000     FOR LAYER   1


 STRESS PERIOD     LENGTH       TIME STEPS     MULTIPLIER FOR DELT    SS FLAG
 ----------------------------------------------------------------------------
        1         92.00000          1                    1.500         TR
        2         91.00000          1                    1.500         TR
        3         91.00000          1                    1.500         TR
        4         91.00000          1                    1.500         TR
        5         92.00000          1                    1.500         TR
        6         91.00000          1                    1.500         TR
        7         91.00000          1                    1.500         TR
        8         91.00000          1                    1.500         TR
        9         92.00000          1                    1.500         TR
       10         91.00000          1                    1.500         TR
       11         91.00000          1                    1.500         TR
       12         91.00000          1                    1.500         TR

 TRANSIENT SIMULATION



 
 #MODOFC transient water supply sample problem                                   
 #                                                                               
 THE FREE FORMAT OPTION HAS BEEN SELECTED



                     BOUNDARY ARRAY FOR LAYER   1
 READING ON UNIT   12 WITH FORMAT: (20I4)              

 AQUIFER HEAD WILL BE SET TO   0.0000     AT ALL NO-FLOW NODES (IBOUND=0).



                       INITIAL HEAD FOR LAYER   1
 READING ON UNIT   12 WITH FORMAT: (10F13.0)           
 # Output control package file for MODFLOW, generated by Flopy.

 OUTPUT CONTROL IS SPECIFIED ONLY AT TIME STEPS FOR WHICH OUTPUT IS DESIRED
 HEADS WILL BE SAVED WITH FORMAT: (30E15.6)           
 SAVED HEADS WILL BE LABELED
 COMPACT CELL-BY-CELL BUDGET FILES WILL BE WRITTEN
 AUXILIARY DATA WILL BE SAVED IN CELL-BY-CELL BUDGET FILES
 HEAD PRINT FORMAT CODE IS   0    DRAWDOWN PRINT FORMAT CODE IS   0
 HEADS WILL BE SAVED ON UNIT   51    DRAWDOWNS WILL BE SAVED ON UNIT   52

 BCF -- BLOCK-CENTERED FLOW PACKAGE, VERSION 7, 5/2/2005
         INPUT READ FROM UNIT 13
 TRANSIENT SIMULATION
 HEAD AT CELLS THAT CONVERT TO DRY=   0.0000    
 WETTING CAPABILITY IS NOT ACTIVE
      LAYER  LAYER-TYPE CODE     INTERBLOCK T
      --------------------------------------------
         1            0          0 -- HARMONIC    

 COLUMN TO ROW ANISOTROPY =  1.000000    

     PRIMARY STORAGE COEF =  5.000000E-02 FOR LAYER   1

 OPENING FILE ON UNIT   99:
 TRAN.ref                                                                                                                                                                                                



               TRANSMIS. ALONG ROWS FOR LAYER   1
 READING ON UNIT   99 WITH FORMAT: (FREE)              

            1           2           3           4           5           6           7           8           9          10
           11          12          13          14          15          16          17          18          19          20
           21          22          23          24          25          26          27          28          29          30
 ........................................................................................................................
   1    500.0       500.0       500.0       500.0       500.0       500.0       500.0       500.0       500.0       500.0    
        500.0       500.0       500.0       500.0       500.0       500.0       500.0       500.0       500.0       500.0    
        500.0       500.0       500.0       500.0       500.0       500.0       500.0       500.0       500.0       500.0    
   2    500.0       500.0       500.0       500.0       500.0       500.0       500.0       500.0       500.0       500.0    
        500.0       500.0       500.0       500.0       500.0       500.0       500.0       500.0       500.0       500.0    
        500.0       500.0       500.0       500.0       500.0       500.0       500.0       500.0       500.0       500.0    
   3    500.0       500.0       500.0       500.0       500.0       500.0       500.0       500.0       500.0       500.0    
        500.0       500.0       500.0       500.0       500.0       500.0       500.0       500.0       500.0       500.0    
        500.0       500.0       500.0       500.0       500.0       500.0       500.0       500.0       500.0       500.0    
   4    500.0       500.0       500.0       500.0       500.0       500.0       500.0       500.0       500.0       500.0    
        500.0       500.0       500.0       500.0       500.0       500.0       500.0       500.0       500.0       500.0    
        500.0       500.0       500.0       500.0       500.0       500.0       500.0       500.0       500.0       500.0    
   5    500.0       500.0       500.0       500.0       500.0       500.0       500.0       500.0       500.0       500.0    
        500.0       500.0       500.0       500.0       500.0       500.0       500.0       500.0       500.0       500.0    
        500.0       500.0       500.0       500.0       500.0       500.0       500.0       500.0       500.0       500.0    
   6    500.0       500.0       500.0       500.0       500.0       500.0       500.0       500.0       500.0       500.0    
        500.0       500.0       500.0       500.0       500.0       500.0       500.0       500.0       500.0       500.0    
        500.0       500.0       500.0       500.0       500.0       500.0       500.0       500.0       500.0       500.0    
   7    500.0       500.0       500.0       500.0       500.0       500.0       500.0       500.0       500.0       500.0    
        500.0       500.0       500.0       500.0       500.0       500.0       500.0       500.0       500.0       500.0    
        500.0       500.0       500.0       500.0       500.0       500.0       500.0       500.0       500.0       500.0    
   8    500.0       500.0       500.0       500.0       500.0       500.0       500.0       500.0       500.0       500.0    
        500.0       500.0       500.0       500.0       500.0       500.0       500.0       500.0       500.0       500.0    
        500.0       500.0       500.0       500.0       500.0       500.0       500.0       500.0       500.0       500.0    
   9    500.0       500.0       500.0       500.0       500.0       500.0       500.0       500.0       500.0       500.0    
        500.0       500.0       500.0       500.0       500.0       500.0       500.0       500.0       500.0       500.0    
        500.0       500.0       500.0       500.0       500.0       500.0       500.0       500.0       500.0       500.0    
  10    500.0       500.0       500.0       500.0       500.0       500.0       500.0       500.0       500.0       500.0    
        500.0       500.0       500.0       500.0       500.0       500.0       500.0       500.0       500.0       500.0    
        500.0       500.0       500.0       500.0       500.0       500.0       500.0       500.0       500.0       500.0    
  11    500.0       500.0       500.0       500.0       500.0       500.0       500.0       500.0       500.0       500.0    
        500.0       500.0       500.0       500.0       500.0       500.0       500.0       500.0       500.0       500.0    
        500.0       500.0       500.0       500.0       500.0       500.0       500.0       500.0       500.0       500.0    
  12    500.0       500.0       500.0       500.0       500.0       500.0       500.0       500.0       500.0       500.0    
        500.0       500.0       500.0       500.0       500.0       500.0       500.0       500.0       500.0       500.0    
        500.0       500.0       500.0       500.0       500.0       500.0       500.0       500.0       500.0       500.0    
  13    500.0       500.0       500.0       500.0       500.0       500.0       500.0       500.0       500.0       500.0    
        500.0       500.0       500.0       500.0       500.0       500.0       500.0       500.0       500.0       500.0    
        500.0       500.0       500.0       500.0       500.0       500.0       500.0       500.0       500.0       500.0    
  14    500.0       500.0       500.0       500.0       500.0       500.0       500.0       500.0       500.0       500.0    
        500.0       500.0       500.0       500.0       500.0       500.0       500.0       500.0       500.0       500.0    
        500.0       500.0       500.0       500.0       500.0       500.0       500.0       500.0       500.0       500.0    
  15    500.0       500.0       500.0       500.0       500.0       500.0       500.0       500.0       500.0       500.0    
        500.0       500.0       500.0       500.0       500.0       500.0       500.0       500.0       500.0       500.0    
        500.0       500.0       500.0       500.0       500.0       500.0       500.0       500.0       500.0       500.0    
  16    500.0       500.0       500.0       500.0       500.0       500.0       500.0       500.0       500.0       500.0    
        500.0       500.0       500.0       500.0       500.0       500.0       500.0       500.0       500.0       500.0    
        500.0       500.0       500.0       500.0       500.0       500.0       500.0       500.0       500.0       500.0    
  17    500.0       500.0       500.0       500.0       500.0       500.0       500.0       500.0       500.0       500.0    
        500.0       500.0       500.0       500.0       500.0       500.0       500.0       500.0       500.0       500.0    
        500.0       500.0       500.0       500.0       500.0       500.0       500.0       500.0       500.0       500.0    
  18    500.0       500.0       500.0       500.0       500.0       500.0       500.0       500.0       500.0       500.0    
        500.0       500.0       500.0       500.0       500.0       500.0       500.0       500.0       500.0       500.0    
        500.0       500.0       500.0       500.0       500.0       500.0       500.0       500.0       500.0       500.0    
  19    500.0       500.0       500.0       500.0       500.0       500.0       500.0       500.0       500.0       500.0    
        500.0       500.0       500.0       500.0       500.0       500.0       500.0       500.0       500.0       500.0    
        500.0       500.0       500.0       500.0       500.0       500.0       500.0       500.0       500.0       500.0    
  20    500.0       500.0       500.0       500.0       500.0       500.0       500.0       500.0       500.0       500.0    
        500.0       500.0       500.0       500.0       500.0       500.0       500.0       500.0       500.0       500.0    
        500.0       500.0       500.0       500.0       500.0       500.0       500.0       500.0       500.0       500.0    
  21    500.0       500.0       500.0       500.0       500.0       500.0       500.0       500.0       500.0       500.0    
        500.0       500.0       500.0       500.0       500.0       500.0       500.0       500.0       500.0       500.0    
        500.0       500.0       500.0       500.0       500.0       500.0       500.0       500.0       500.0       500.0    
  22    500.0       500.0       500.0       500.0       500.0       500.0       500.0       500.0       500.0       500.0    
        500.0       500.0       500.0       500.0       500.0       500.0       500.0       500.0       500.0       500.0    
        500.0       500.0       500.0       500.0       500.0       500.0       500.0       500.0       500.0       500.0    
  23    500.0       500.0       500.0       500.0       500.0       500.0       500.0       500.0       500.0       500.0    
        500.0       500.0       500.0       500.0       500.0       500.0       500.0       500.0       500.0       500.0    
        500.0       500.0       500.0       500.0       500.0       500.0       500.0       500.0       500.0       500.0    
  24    500.0       500.0       500.0       500.0       500.0       500.0       500.0       500.0       500.0       500.0    
        500.0       500.0       500.0       500.0       500.0       500.0       500.0       500.0       500.0       500.0    
        500.0       500.0       500.0       500.0       500.0       500.0       500.0       500.0       500.0       500.0    
  25    500.0       500.0       500.0       500.0       500.0       500.0       500.0       500.0       500.0       500.0    
        500.0       500.0       500.0       500.0       500.0       500.0       500.0       500.0       500.0       500.0    
        500.0       500.0       500.0       500.0       500.0       500.0       500.0       500.0       500.0       500.0    

 WEL -- WELL PACKAGE, VERSION 7, 5/2/2005 INPUT READ FROM UNIT   20
 # Well file for MODFLOW, generated by Flopy.
 No named parameters
 MAXIMUM OF      4 ACTIVE WELLS AT ONE TIME


     0 Well parameters

 RCH -- RECHARGE PACKAGE, VERSION 7, 5/2/2005 INPUT READ FROM UNIT   15
 No named parameters
 OPTION 1 -- RECHARGE TO TOP LAYER


     0 Recharge parameters

 SFR7 -- STREAMFLOW ROUTING PACKAGE, VERSION 1.0.7, 2013-01-15
         INPUT READ FROM UNIT  16
 #SUPPLY2 Sample Problem, SFR file
 #March 2009
 No named parameters
 Segment information will not be 
 read by reach
 No named parameters
 No specifed inflow files


 NUMBER OF STREAM REACHES IS   40

 NUMBER OF STREAM SEGMENTS IS    3

 NUMBER OF STREAM PARAMETERS IS    0

 NUMBER OF STREAM SEGMENTS DEFINED USING PARAMETERS IS              0

 MAXIMUM ERROR FOR STREAM LEAKAGE RATES IS  1.00E-04

 CONSTANT FOR MANNINGS EQUATION IS  1.2839E+05



 STREAM OUTPUT WILL BE WRITTEN TO FILE ON UNIT   81


   STREAM NETWORK DESCRIPTION: 

   LAYER    ROW    COL   SEGMENT   REACH     LENGTH
                          NUMBER   NUMBER    IN CELL        
   --------------------------------------------------
      1     13      1       1        1    2.0000E+02
      1     13      2       1        2    2.0000E+02
      1     14      3       1        3    2.0000E+02
      1     15      4       1        4    2.0000E+02
      1     16      5       1        5    2.0000E+02
      1     16      6       1        6    2.0000E+02
      1     16      7       1        7    2.0000E+02
      1     16      8       1        8    2.0000E+02
      1     16      9       1        9    2.0000E+02
      1     16     10       1       10    2.0000E+02
      1     16     11       1       11    2.0000E+02
      1     16     12       1       12    2.0000E+02
      1     15     13       1       13    2.0000E+02
      1     14     14       1       14    2.0000E+02
      1     13     15       1       15    2.0000E+02
      1     12     16       1       16    2.0000E+02
      1     12     17       1       17    2.0000E+02
      1     12     18       1       18    2.0000E+02
      1     12     19       1       19    2.0000E+02
      1     13     20       1       20    2.0000E+02
      1     14     21       1       21    2.0000E+02
      1     14     22       1       22    2.0000E+02
      1      9     30       2        1    2.0000E+02
      1      9     29       2        2    2.0000E+02
      1      9     28       2        3    2.0000E+02
      1      9     27       2        4    2.0000E+02
      1     10     26       2        5    2.0000E+02
      1     11     25       2        6    2.0000E+02
      1     12     24       2        7    2.0000E+02
      1     13     23       2        8    2.0000E+02
      1     14     22       2        9    2.0000E+02
      1     14     22       3        1    2.0000E+02
      1     15     23       3        2    2.0000E+02
      1     15     24       3        3    2.0000E+02
      1     15     25       3        4    2.0000E+02
      1     15     26       3        5    2.0000E+02
      1     16     27       3        6    2.0000E+02
      1     17     28       3        7    2.0000E+02
      1     18     29       3        8    2.0000E+02
      1     18     30       3        9    2.0000E+02




 PCG -- CONJUGATE-GRADIENT SOLUTION PACKAGE, VERSION 7, 5/2/2005
 MAXIMUM OF    500 CALLS OF SOLUTION ROUTINE
 MAXIMUM OF      5 INTERNAL ITERATIONS PER CALL TO SOLUTION ROUTINE
 MATRIX PRECONDITIONING TYPE :    1



                                    SOLUTION BY THE CONJUGATE-GRADIENT METHOD
                                   -------------------------------------------
                    MAXIMUM NUMBER OF CALLS TO PCG ROUTINE =      500
                        MAXIMUM ITERATIONS PER CALL TO PCG =        5
                               MATRIX PRECONDITIONING TYPE =        1
        RELAXATION FACTOR (ONLY USED WITH PRECOND. TYPE 1) =    0.10000E+01
 PARAMETER OF POLYNOMIAL PRECOND. = 2 (2) OR IS CALCULATED :        0
                         HEAD CHANGE CRITERION FOR CLOSURE =    0.10000E-04
                     RESIDUAL CHANGE CRITERION FOR CLOSURE =    0.10000E+01
            PCG HEAD AND RESIDUAL CHANGE PRINTOUT INTERVAL =        1
     PRINTING FROM SOLVER IS LIMITED(1) OR SUPPRESSED (>1) =        1
                            STEADY-STATE DAMPING PARAMETER =    0.10000E+01
                               TRANSIENT DAMPING PARAMETER =    0.10000E+01
1
                            STRESS PERIOD NO.    1, LENGTH =   92.00000    
                            -----------------------------------------------

                              NUMBER OF TIME STEPS =     1

                               MULTIPLIER FOR DELT =     1.500

                            INITIAL TIME STEP SIZE =   92.00000    

 WELL NO.  LAYER   ROW   COL   STRESS RATE         
 --------------------------------------------------
      1      1     12     11      -4035.    
      2      1     16     17     -0.5000E+05
      3      1     11     22       0.000    
      4      1     14     25       0.000    

      4 WELLS

                 RECHARGE =  5.000000E-04



 CLASSIFICATION & COUNT OF STREAM SEGMENTS BASED ON SOURCE OF INFLOW:

                HEADWATER     DIVERSION     RECEIVES TRIBUTARY FLOW
                ---------     ---------     -----------------------
                     2              0               1



                    INPUT DATA FOR EACH STREAM SEGMENT
 ---------------------------------------------------------------------------------------------

 SEGMENT    SEG.     INFLOW   OVERLAND   STREAM    STREAM   ICALC  OUTFLOW  DIVERSION PRIORITY
    NO.    LENGTH     RATE     RUNOFF      ET       PPT.    METH.  TO SEG.  FROM SEG.    NO.

      1  4.400E+03 1.000E+05 0.000E+00 0.000E+00 0.000E+00    1        3        0        0
      2  1.800E+03 5.000E+04 0.000E+00 0.000E+00 0.000E+00    1        3        0        0
      3  1.800E+03 0.000E+00 0.000E+00 0.000E+00 0.000E+00    1        0        0        0


         STREAMBED PROPERTIES AND STREAM DIMENSIONS

 SEGMENT     BED HYD. COND.      BED THICKNESS     ELEV.-TOP OF BED     WIDTH OF STREAM     DEPTH OF STREAM    STREAM ROUGHNESS
    No.     UPPER     LOWER     UPPER     LOWER     UPPER     LOWER     UPPER     LOWER     UPPER     LOWER   CHANNEL      BANK

     1  5.000E+00 5.000E+00 1.000E+00 1.000E+00 4.850E+01 3.800E+01 2.000E+01 2.000E+01                     5.000E-02
     2  5.000E+00 5.000E+00 1.000E+00 1.000E+00 4.025E+01 3.800E+01 2.000E+01 2.000E+01                     5.000E-02
     3  5.000E+00 5.000E+00 1.000E+00 1.000E+00 3.800E+01 3.000E+01 2.000E+01 2.000E+01                     5.000E-02



 
 SOLVING FOR HEAD 


     8 CALLS TO PCG ROUTINE FOR TIME STEP   1 IN STRESS PERIOD    1
    31 TOTAL ITERATIONS

 OUTPUT CONTROL FOR STRESS PERIOD    1   TIME STEP    1
    SAVE HEAD FOR ALL LAYERS



 STREAM LISTING     PERIOD      1   STEP        1

 LAYER ROW COL. STREAM  RCH.  FLOW INTO     FLOW TO   FLOW OUT OF   OVRLND.     DIRECT     STREAM       STREAM     STREAM     STREAM   STREAMBED  STREAMBED
                SEG.NO.  NO.  STRM. RCH.    AQUIFER    STRM. RCH.    RUNOFF     PRECIP       ET          HEAD       DEPTH      WIDTH   CONDCTNC.   GRADIENT

   1   13    1     1     1    1.0000E+05 -5.7342E+03   1.0573E+05  0.000E+00  0.000E+00  0.000E+00  4.84085E+01  1.471E-01  2.000E+01  2.000E+04 -2.867E-01
   1   13    2     1     2    1.0573E+05 -8.5546E+03   1.1429E+05  0.000E+00  0.000E+00  0.000E+00  4.79373E+01  1.532E-01  2.000E+01  2.000E+04 -4.277E-01
   1   14    3     1     3    1.1429E+05 -7.8270E+03   1.2212E+05  0.000E+00  0.000E+00  0.000E+00  4.74667E+01  1.599E-01  2.000E+01  2.000E+04 -3.913E-01
   1   15    4     1     4    1.2212E+05 -7.6492E+03   1.2977E+05  0.000E+00  0.000E+00  0.000E+00  4.69957E+01  1.661E-01  2.000E+01  2.000E+04 -3.825E-01
   1   16    5     1     5    1.2977E+05 -7.4464E+03   1.3721E+05  0.000E+00  0.000E+00  0.000E+00  4.65243E+01  1.720E-01  2.000E+01  2.000E+04 -3.723E-01
   1   16    6     1     6    1.3721E+05 -5.9251E+03   1.4314E+05  0.000E+00  0.000E+00  0.000E+00  4.60521E+01  1.771E-01  2.000E+01  2.000E+04 -2.963E-01
   1   16    7     1     7    1.4314E+05 -6.0194E+03   1.4916E+05  0.000E+00  0.000E+00  0.000E+00  4.55794E+01  1.816E-01  2.000E+01  2.000E+04 -3.010E-01
   1   16    8     1     8    1.4916E+05 -6.0409E+03   1.5520E+05  0.000E+00  0.000E+00  0.000E+00  4.51065E+01  1.861E-01  2.000E+01  2.000E+04 -3.020E-01
   1   16    9     1     9    1.5520E+05 -5.9636E+03   1.6116E+05  0.000E+00  0.000E+00  0.000E+00  4.46336E+01  1.905E-01  2.000E+01  2.000E+04 -2.982E-01
   1   16   10     1    10    1.6116E+05 -5.7801E+03   1.6694E+05  0.000E+00  0.000E+00  0.000E+00  4.41606E+01  1.947E-01  2.000E+01  2.000E+04 -2.890E-01
   1   16   11     1    11    1.6694E+05 -5.4761E+03   1.7242E+05  0.000E+00  0.000E+00  0.000E+00  4.36873E+01  1.987E-01  2.000E+01  2.000E+04 -2.738E-01
   1   16   12     1    12    1.7242E+05 -5.8666E+03   1.7828E+05  0.000E+00  0.000E+00  0.000E+00  4.32140E+01  2.026E-01  2.000E+01  2.000E+04 -2.933E-01
   1   15   13     1    13    1.7828E+05 -4.9860E+03   1.8327E+05  0.000E+00  0.000E+00  0.000E+00  4.27404E+01  2.064E-01  2.000E+01  2.000E+04 -2.493E-01
   1   14   14     1    14    1.8327E+05 -4.3272E+03   1.8760E+05  0.000E+00  0.000E+00  0.000E+00  4.22663E+01  2.095E-01  2.000E+01  2.000E+04 -2.164E-01
   1   13   15     1    15    1.8760E+05 -4.8677E+03   1.9246E+05  0.000E+00  0.000E+00  0.000E+00  4.17922E+01  2.126E-01  2.000E+01  2.000E+04 -2.434E-01
   1   12   16     1    16    1.9246E+05 -7.6841E+03   2.0015E+05  0.000E+00  0.000E+00  0.000E+00  4.13191E+01  2.168E-01  2.000E+01  2.000E+04 -3.842E-01
   1   12   17     1    17    2.0015E+05 -4.4477E+03   2.0460E+05  0.000E+00  0.000E+00  0.000E+00  4.08458E+01  2.208E-01  2.000E+01  2.000E+04 -2.224E-01
   1   12   18     1    18    2.0460E+05 -4.5180E+03   2.0911E+05  0.000E+00  0.000E+00  0.000E+00  4.03715E+01  2.237E-01  2.000E+01  2.000E+04 -2.259E-01
   1   12   19     1    19    2.0911E+05 -6.8839E+03   2.1600E+05  0.000E+00  0.000E+00  0.000E+00  3.98979E+01  2.274E-01  2.000E+01  2.000E+04 -3.442E-01
   1   13   20     1    20    2.1600E+05 -4.1196E+03   2.2012E+05  0.000E+00  0.000E+00  0.000E+00  3.94241E+01  2.309E-01  2.000E+01  2.000E+04 -2.060E-01
   1   14   21     1    21    2.2012E+05 -2.8993E+03   2.2302E+05  0.000E+00  0.000E+00  0.000E+00  3.89491E+01  2.331E-01  2.000E+01  2.000E+04 -1.450E-01
   1   14   22     1    22    2.2302E+05  4.4581E+03   2.1856E+05  0.000E+00  0.000E+00  0.000E+00  3.84713E+01  2.327E-01  2.000E+01  2.000E+04  2.229E-01
   1    9   30     2     1    5.0000E+04 -5.5706E+03   5.5571E+04  0.000E+00  0.000E+00  0.000E+00  4.02447E+01  1.197E-01  2.000E+01  2.000E+04 -2.785E-01
   1    9   29     2     2    5.5571E+04 -5.8695E+03   6.1440E+04  0.000E+00  0.000E+00  0.000E+00  4.00023E+01  1.273E-01  2.000E+01  2.000E+04 -2.935E-01
   1    9   28     2     3    6.1440E+04 -6.1933E+03   6.7633E+04  0.000E+00  0.000E+00  0.000E+00  3.97600E+01  1.350E-01  2.000E+01  2.000E+04 -3.097E-01
   1    9   27     2     4    6.7633E+04 -9.5843E+03   7.7218E+04  0.000E+00  0.000E+00  0.000E+00  3.95197E+01  1.447E-01  2.000E+01  2.000E+04 -4.792E-01
   1   10   26     2     5    7.7218E+04 -7.7132E+03   8.4931E+04  0.000E+00  0.000E+00  0.000E+00  3.92798E+01  1.548E-01  2.000E+01  2.000E+04 -3.857E-01
   1   11   25     2     6    8.4931E+04 -6.5846E+03   9.1515E+04  0.000E+00  0.000E+00  0.000E+00  3.90379E+01  1.629E-01  2.000E+01  2.000E+04 -3.292E-01
   1   12   24     2     7    9.1515E+04 -5.3194E+03   9.6835E+04  0.000E+00  0.000E+00  0.000E+00  3.87944E+01  1.694E-01  2.000E+01  2.000E+04 -2.660E-01
   1   13   23     2     8    9.6835E+04 -3.7538E+03   1.0059E+05  0.000E+00  0.000E+00  0.000E+00  3.85493E+01  1.743E-01  2.000E+01  2.000E+04 -1.877E-01
   1   14   22     2     9    1.0059E+05  1.0460E+03   9.9543E+04  0.000E+00  0.000E+00  0.000E+00  3.83007E+01  1.757E-01  2.000E+01  2.000E+04  5.230E-02
   1   14   22     3     1    3.1810E+05 -9.0089E+03   3.2711E+05  0.000E+00  0.000E+00  0.000E+00  3.77979E+01  2.424E-01  2.000E+01  2.000E+04 -4.504E-01
   1   15   23     3     2    3.2711E+05 -4.8326E+03   3.3194E+05  0.000E+00  0.000E+00  0.000E+00  3.69122E+01  2.455E-01  2.000E+01  2.000E+04 -2.416E-01
   1   15   24     3     3    3.3194E+05 -4.0242E+03   3.3597E+05  0.000E+00  0.000E+00  0.000E+00  3.60252E+01  2.475E-01  2.000E+01  2.000E+04 -2.012E-01
   1   15   25     3     4    3.3597E+05 -4.1743E+03   3.4014E+05  0.000E+00  0.000E+00  0.000E+00  3.51382E+01  2.493E-01  2.000E+01  2.000E+04 -2.087E-01
   1   15   26     3     5    3.4014E+05 -5.5829E+03   3.4572E+05  0.000E+00  0.000E+00  0.000E+00  3.42514E+01  2.514E-01  2.000E+01  2.000E+04 -2.791E-01
   1   16   27     3     6    3.4572E+05 -7.1258E+03   3.5285E+05  0.000E+00  0.000E+00  0.000E+00  3.33653E+01  2.542E-01  2.000E+01  2.000E+04 -3.563E-01
   1   17   28     3     7    3.5285E+05 -7.9385E+03   3.6079E+05  0.000E+00  0.000E+00  0.000E+00  3.24797E+01  2.575E-01  2.000E+01  2.000E+04 -3.969E-01
   1   18   29     3     8    3.6079E+05 -9.0164E+03   3.6980E+05  0.000E+00  0.000E+00  0.000E+00  3.15945E+01  2.611E-01  2.000E+01  2.000E+04 -4.508E-01
   1   18   30     3     9    3.6980E+05 -7.5023E+03   3.7731E+05  0.000E+00  0.000E+00  0.000E+00  3.07091E+01  2.647E-01  2.000E+01  2.000E+04 -3.751E-01




 HEAD WILL BE SAVED ON UNIT   51 AT END OF TIME STEP    1, STRESS PERIOD    1
1
  VOLUMETRIC BUDGET FOR ENTIRE MODEL AT END OF TIME STEP    1, STRESS PERIOD   1
  ------------------------------------------------------------------------------

     CUMULATIVE VOLUMES      L**3       RATES FOR THIS TIME STEP      L**3/T
     ------------------                 ------------------------

           IN:                                      IN:
           ---                                      ---
             STORAGE =    16881664.0000               STORAGE =      183496.3438
       CONSTANT HEAD =     7732109.0000         CONSTANT HEAD =       84044.6641
               WELLS =           0.0000                 WELLS =           0.0000
            RECHARGE =     1269600.0000              RECHARGE =       13800.0000
      STREAM LEAKAGE =      506376.0000        STREAM LEAKAGE =        5504.0869

            TOTAL IN =    26389748.0000              TOTAL IN =      286845.0938

          OUT:                                     OUT:
          ----                                     ----
             STORAGE =           0.0000               STORAGE =           0.0000
       CONSTANT HEAD =           0.0000         CONSTANT HEAD =           0.0000
               WELLS =     4971228.0000                 WELLS =       54035.0859
            RECHARGE =           0.0000              RECHARGE =           0.0000
      STREAM LEAKAGE =    21418650.0000        STREAM LEAKAGE =      232811.4062

           TOTAL OUT =    26389878.0000             TOTAL OUT =      286846.5000

            IN - OUT =        -130.0000              IN - OUT =          -1.4062

 PERCENT DISCREPANCY =          -0.00     PERCENT DISCREPANCY =          -0.00






         TIME SUMMARY AT END OF TIME STEP    1 IN STRESS PERIOD    1
                    SECONDS     MINUTES      HOURS       DAYS        YEARS
                    -----------------------------------------------------------
   TIME STEP LENGTH 7.94880E+06 1.32480E+05  2208.0      92.000     0.25188    
 STRESS PERIOD TIME 7.94880E+06 1.32480E+05  2208.0      92.000     0.25188    
         TOTAL TIME 7.94880E+06 1.32480E+05  2208.0      92.000     0.25188    
1
1
                            STRESS PERIOD NO.    2, LENGTH =   91.00000    
                            -----------------------------------------------

                              NUMBER OF TIME STEPS =     1

                               MULTIPLIER FOR DELT =     1.500

                            INITIAL TIME STEP SIZE =   91.00000    

 WELL NO.  LAYER   ROW   COL   STRESS RATE         
 --------------------------------------------------
      1      1     12     11      -4035.    
      2      1     16     17     -0.2714E+05
      3      1     11     22       0.000    
      4      1     14     25     -0.4883E+05

      4 WELLS

                 RECHARGE =  2.000000E-03

 REUSING STREAM SEGMENT DATA FROM LAST STRESS PERIOD
 
 SOLVING FOR HEAD 


     6 CALLS TO PCG ROUTINE FOR TIME STEP   1 IN STRESS PERIOD    2
    23 TOTAL ITERATIONS

 NO OUTPUT CONTROL FOR STRESS PERIOD    2   TIME STEP    1



 STREAM LISTING     PERIOD      2   STEP        1

 LAYER ROW COL. STREAM  RCH.  FLOW INTO     FLOW TO   FLOW OUT OF   OVRLND.     DIRECT     STREAM       STREAM     STREAM     STREAM   STREAMBED  STREAMBED
                SEG.NO.  NO.  STRM. RCH.    AQUIFER    STRM. RCH.    RUNOFF     PRECIP       ET          HEAD       DEPTH      WIDTH   CONDCTNC.   GRADIENT

   1   13    1     1     1    1.0000E+05 -3.8084E+03   1.0381E+05  0.000E+00  0.000E+00  0.000E+00  4.84077E+01  1.463E-01  2.000E+01  2.000E+04 -1.904E-01
   1   13    2     1     2    1.0381E+05 -6.1152E+03   1.0992E+05  0.000E+00  0.000E+00  0.000E+00  4.79346E+01  1.505E-01  2.000E+01  2.000E+04 -3.058E-01
   1   14    3     1     3    1.0992E+05 -5.0787E+03   1.1500E+05  0.000E+00  0.000E+00  0.000E+00  4.74620E+01  1.552E-01  2.000E+01  2.000E+04 -2.539E-01
   1   15    4     1     4    1.1500E+05 -4.9192E+03   1.1992E+05  0.000E+00  0.000E+00  0.000E+00  4.69889E+01  1.593E-01  2.000E+01  2.000E+04 -2.460E-01
   1   16    5     1     5    1.1992E+05 -5.1132E+03   1.2503E+05  0.000E+00  0.000E+00  0.000E+00  4.65156E+01  1.634E-01  2.000E+01  2.000E+04 -2.557E-01
   1   16    6     1     6    1.2503E+05 -4.0083E+03   1.2904E+05  0.000E+00  0.000E+00  0.000E+00  4.60420E+01  1.670E-01  2.000E+01  2.000E+04 -2.004E-01
   1   16    7     1     7    1.2904E+05 -4.0551E+03   1.3310E+05  0.000E+00  0.000E+00  0.000E+00  4.55679E+01  1.701E-01  2.000E+01  2.000E+04 -2.028E-01
   1   16    8     1     8    1.3310E+05 -4.0427E+03   1.3714E+05  0.000E+00  0.000E+00  0.000E+00  4.50937E+01  1.733E-01  2.000E+01  2.000E+04 -2.021E-01
   1   16    9     1     9    1.3714E+05 -3.9493E+03   1.4109E+05  0.000E+00  0.000E+00  0.000E+00  4.46195E+01  1.763E-01  2.000E+01  2.000E+04 -1.975E-01
   1   16   10     1    10    1.4109E+05 -3.7728E+03   1.4486E+05  0.000E+00  0.000E+00  0.000E+00  4.41452E+01  1.793E-01  2.000E+01  2.000E+04 -1.886E-01
   1   16   11     1    11    1.4486E+05 -3.5149E+03   1.4838E+05  0.000E+00  0.000E+00  0.000E+00  4.36706E+01  1.820E-01  2.000E+01  2.000E+04 -1.757E-01
   1   16   12     1    12    1.4838E+05 -3.6981E+03   1.5208E+05  0.000E+00  0.000E+00  0.000E+00  4.31960E+01  1.847E-01  2.000E+01  2.000E+04 -1.849E-01
   1   15   13     1    13    1.5208E+05 -2.6823E+03   1.5476E+05  0.000E+00  0.000E+00  0.000E+00  4.27211E+01  1.870E-01  2.000E+01  2.000E+04 -1.341E-01
   1   14   14     1    14    1.5476E+05 -2.2140E+03   1.5697E+05  0.000E+00  0.000E+00  0.000E+00  4.22456E+01  1.888E-01  2.000E+01  2.000E+04 -1.107E-01
   1   13   15     1    15    1.5697E+05 -2.7824E+03   1.5975E+05  0.000E+00  0.000E+00  0.000E+00  4.17701E+01  1.906E-01  2.000E+01  2.000E+04 -1.391E-01
   1   12   16     1    16    1.5975E+05 -5.4532E+03   1.6521E+05  0.000E+00  0.000E+00  0.000E+00  4.12958E+01  1.936E-01  2.000E+01  2.000E+04 -2.727E-01
   1   12   17     1    17    1.6521E+05 -2.9156E+03   1.6812E+05  0.000E+00  0.000E+00  0.000E+00  4.08215E+01  1.965E-01  2.000E+01  2.000E+04 -1.458E-01
   1   12   18     1    18    1.6812E+05 -2.9102E+03   1.7103E+05  0.000E+00  0.000E+00  0.000E+00  4.03463E+01  1.986E-01  2.000E+01  2.000E+04 -1.455E-01
   1   12   19     1    19    1.7103E+05 -4.6406E+03   1.7567E+05  0.000E+00  0.000E+00  0.000E+00  3.98717E+01  2.012E-01  2.000E+01  2.000E+04 -2.320E-01
   1   13   20     1    20    1.7567E+05 -2.0019E+03   1.7768E+05  0.000E+00  0.000E+00  0.000E+00  3.93967E+01  2.035E-01  2.000E+01  2.000E+04 -1.001E-01
   1   14   21     1    21    1.7768E+05 -1.0462E+03   1.7872E+05  0.000E+00  0.000E+00  0.000E+00  3.89205E+01  2.046E-01  2.000E+01  2.000E+04 -5.231E-02
   1   14   22     1    22    1.7872E+05  5.5839E+03   1.7314E+05  0.000E+00  0.000E+00  0.000E+00  3.84417E+01  2.030E-01  2.000E+01  2.000E+04  2.792E-01
   1    9   30     2     1    5.0000E+04 -3.1797E+03   5.3180E+04  0.000E+00  0.000E+00  0.000E+00  4.02431E+01  1.181E-01  2.000E+01  2.000E+04 -1.590E-01
   1    9   29     2     2    5.3180E+04 -3.4803E+03   5.6660E+04  0.000E+00  0.000E+00  0.000E+00  3.99976E+01  1.226E-01  2.000E+01  2.000E+04 -1.740E-01
   1    9   28     2     3    5.6660E+04 -3.8288E+03   6.0489E+04  0.000E+00  0.000E+00  0.000E+00  3.97524E+01  1.274E-01  2.000E+01  2.000E+04 -1.914E-01
   1    9   27     2     4    6.0489E+04 -6.8509E+03   6.7340E+04  0.000E+00  0.000E+00  0.000E+00  3.95093E+01  1.343E-01  2.000E+01  2.000E+04 -3.425E-01
   1   10   26     2     5    6.7340E+04 -3.8017E+03   7.1141E+04  0.000E+00  0.000E+00  0.000E+00  3.92659E+01  1.409E-01  2.000E+01  2.000E+04 -1.901E-01
   1   11   25     2     6    7.1141E+04 -9.8463E+02   7.2126E+04  0.000E+00  0.000E+00  0.000E+00  3.90188E+01  1.438E-01  2.000E+01  2.000E+04 -4.923E-02
   1   12   24     2     7    7.2126E+04  1.9688E+03   7.0157E+04  0.000E+00  0.000E+00  0.000E+00  3.87682E+01  1.432E-01  2.000E+01  2.000E+04  9.844E-02
   1   13   23     2     8    7.0157E+04  2.2318E+03   6.7925E+04  0.000E+00  0.000E+00  0.000E+00  3.85156E+01  1.406E-01  2.000E+01  2.000E+04  1.116E-01
   1   14   22     2     9    6.7925E+04  2.0110E+03   6.5914E+04  0.000E+00  0.000E+00  0.000E+00  3.82630E+01  1.380E-01  2.000E+01  2.000E+04  1.006E-01
   1   14   22     3     1    2.3905E+05 -8.0475E+03   2.4710E+05  0.000E+00  0.000E+00  0.000E+00  3.77601E+01  2.045E-01  2.000E+01  2.000E+04 -4.024E-01
   1   15   23     3     2    2.4710E+05 -1.4608E+03   2.4856E+05  0.000E+00  0.000E+00  0.000E+00  3.68736E+01  2.069E-01  2.000E+01  2.000E+04 -7.304E-02
   1   15   24     3     3    2.4856E+05  2.8177E+03   2.4574E+05  0.000E+00  0.000E+00  0.000E+00  3.59844E+01  2.066E-01  2.000E+01  2.000E+04  1.409E-01
   1   15   25     3     4    2.4574E+05  1.3012E+04   2.3273E+05  0.000E+00  0.000E+00  0.000E+00  3.50915E+01  2.026E-01  2.000E+01  2.000E+04  6.506E-01
   1   15   26     3     5    2.3273E+05  3.5421E+03   2.2919E+05  0.000E+00  0.000E+00  0.000E+00  3.41983E+01  1.983E-01  2.000E+01  2.000E+04  1.771E-01
   1   16   27     3     6    2.2919E+05 -2.8351E+03   2.3202E+05  0.000E+00  0.000E+00  0.000E+00  3.33093E+01  1.982E-01  2.000E+01  2.000E+04 -1.418E-01
   1   17   28     3     7    2.3202E+05 -4.4741E+03   2.3650E+05  0.000E+00  0.000E+00  0.000E+00  3.24223E+01  2.000E-01  2.000E+01  2.000E+04 -2.237E-01
   1   18   29     3     8    2.3650E+05 -6.3981E+03   2.4290E+05  0.000E+00  0.000E+00  0.000E+00  3.15361E+01  2.028E-01  2.000E+01  2.000E+04 -3.199E-01
   1   18   30     3     9    2.4290E+05 -5.2473E+03   2.4814E+05  0.000E+00  0.000E+00  0.000E+00  3.06502E+01  2.058E-01  2.000E+01  2.000E+04 -2.624E-01



1
  VOLUMETRIC BUDGET FOR ENTIRE MODEL AT END OF TIME STEP    1, STRESS PERIOD   2
  ------------------------------------------------------------------------------

     CUMULATIVE VOLUMES      L**3       RATES FOR THIS TIME STEP      L**3/T
     ------------------                 ------------------------

           IN:                                      IN:
           ---                                      ---
             STORAGE =    19513754.0000               STORAGE =       28924.0645
       CONSTANT HEAD =    16365232.0000         CONSTANT HEAD =       94869.4844
               WELLS =           0.0000                 WELLS =           0.0000
            RECHARGE =     6292800.0000              RECHARGE =       55200.0000
      STREAM LEAKAGE =     3342578.5000        STREAM LEAKAGE =       31167.0605

            TOTAL IN =    45514364.0000              TOTAL IN =      210160.6094

          OUT:                                     OUT:
          ----                                     ----
             STORAGE =       77238.0312               STORAGE =         848.7696
       CONSTANT HEAD =           0.0000         CONSTANT HEAD =           0.0000
               WELLS =    12251228.0000                 WELLS =       80000.0000
            RECHARGE =           0.0000              RECHARGE =           0.0000
      STREAM LEAKAGE =    33185966.0000        STREAM LEAKAGE =      129311.1641

           TOTAL OUT =    45514432.0000             TOTAL OUT =      210159.9219

            IN - OUT =         -68.0000              IN - OUT =           0.6875

 PERCENT DISCREPANCY =          -0.00     PERCENT DISCREPANCY =           0.00






         TIME SUMMARY AT END OF TIME STEP    1 IN STRESS PERIOD    2
                    SECONDS     MINUTES      HOURS       DAYS        YEARS
                    -----------------------------------------------------------
   TIME STEP LENGTH 7.86240E+06 1.31040E+05  2184.0      91.000     0.24914    
 STRESS PERIOD TIME 7.86240E+06 1.31040E+05  2184.0      91.000     0.24914    
         TOTAL TIME 1.58112E+07 2.63520E+05  4392.0      183.00     0.50103    
1
1
                            STRESS PERIOD NO.    3, LENGTH =   91.00000    
                            -----------------------------------------------

                              NUMBER OF TIME STEPS =     1

                               MULTIPLIER FOR DELT =     1.500

                            INITIAL TIME STEP SIZE =   91.00000    

 WELL NO.  LAYER   ROW   COL   STRESS RATE         
 --------------------------------------------------
      1      1     12     11      -4035.    
      2      1     16     17     -0.2627E+05
      3      1     11     22       0.000    
      4      1     14     25       0.000    

      4 WELLS

                 RECHARGE =   0.00000    

 REUSING STREAM SEGMENT DATA FROM LAST STRESS PERIOD
 
 SOLVING FOR HEAD 


     6 CALLS TO PCG ROUTINE FOR TIME STEP   1 IN STRESS PERIOD    3
    22 TOTAL ITERATIONS

 NO OUTPUT CONTROL FOR STRESS PERIOD    3   TIME STEP    1



 STREAM LISTING     PERIOD      3   STEP        1

 LAYER ROW COL. STREAM  RCH.  FLOW INTO     FLOW TO   FLOW OUT OF   OVRLND.     DIRECT     STREAM       STREAM     STREAM     STREAM   STREAMBED  STREAMBED
                SEG.NO.  NO.  STRM. RCH.    AQUIFER    STRM. RCH.    RUNOFF     PRECIP       ET          HEAD       DEPTH      WIDTH   CONDCTNC.   GRADIENT

   1   13    1     1     1    1.0000E+05 -2.8900E+03   1.0289E+05  0.000E+00  0.000E+00  0.000E+00  4.84073E+01  1.459E-01  2.000E+01  2.000E+04 -1.445E-01
   1   13    2     1     2    1.0289E+05 -4.8534E+03   1.0774E+05  0.000E+00  0.000E+00  0.000E+00  4.79333E+01  1.492E-01  2.000E+01  2.000E+04 -2.427E-01
   1   14    3     1     3    1.0774E+05 -3.8286E+03   1.1157E+05  0.000E+00  0.000E+00  0.000E+00  4.74597E+01  1.529E-01  2.000E+01  2.000E+04 -1.914E-01
   1   15    4     1     4    1.1157E+05 -3.6941E+03   1.1527E+05  0.000E+00  0.000E+00  0.000E+00  4.69855E+01  1.560E-01  2.000E+01  2.000E+04 -1.847E-01
   1   16    5     1     5    1.1527E+05 -4.0122E+03   1.1928E+05  0.000E+00  0.000E+00  0.000E+00  4.65114E+01  1.592E-01  2.000E+01  2.000E+04 -2.006E-01
   1   16    6     1     6    1.1928E+05 -3.1369E+03   1.2242E+05  0.000E+00  0.000E+00  0.000E+00  4.60371E+01  1.621E-01  2.000E+01  2.000E+04 -1.568E-01
   1   16    7     1     7    1.2242E+05 -3.1624E+03   1.2558E+05  0.000E+00  0.000E+00  0.000E+00  4.55623E+01  1.646E-01  2.000E+01  2.000E+04 -1.581E-01
   1   16    8     1     8    1.2558E+05 -3.1386E+03   1.2872E+05  0.000E+00  0.000E+00  0.000E+00  4.50875E+01  1.671E-01  2.000E+01  2.000E+04 -1.569E-01
   1   16    9     1     9    1.2872E+05 -3.0475E+03   1.3176E+05  0.000E+00  0.000E+00  0.000E+00  4.46127E+01  1.695E-01  2.000E+01  2.000E+04 -1.524E-01
   1   16   10     1    10    1.3176E+05 -2.8888E+03   1.3465E+05  0.000E+00  0.000E+00  0.000E+00  4.41377E+01  1.718E-01  2.000E+01  2.000E+04 -1.444E-01
   1   16   11     1    11    1.3465E+05 -2.6655E+03   1.3732E+05  0.000E+00  0.000E+00  0.000E+00  4.36626E+01  1.739E-01  2.000E+01  2.000E+04 -1.333E-01
   1   16   12     1    12    1.3732E+05 -2.7016E+03   1.4002E+05  0.000E+00  0.000E+00  0.000E+00  4.31874E+01  1.760E-01  2.000E+01  2.000E+04 -1.351E-01
   1   15   13     1    13    1.4002E+05 -1.6142E+03   1.4163E+05  0.000E+00  0.000E+00  0.000E+00  4.27117E+01  1.776E-01  2.000E+01  2.000E+04 -8.071E-02
   1   14   14     1    14    1.4163E+05 -1.1585E+03   1.4279E+05  0.000E+00  0.000E+00  0.000E+00  4.22355E+01  1.787E-01  2.000E+01  2.000E+04 -5.793E-02
   1   13   15     1    15    1.4279E+05 -1.7298E+03   1.4452E+05  0.000E+00  0.000E+00  0.000E+00  4.17593E+01  1.798E-01  2.000E+01  2.000E+04 -8.649E-02
   1   12   16     1    16    1.4452E+05 -4.3080E+03   1.4883E+05  0.000E+00  0.000E+00  0.000E+00  4.12843E+01  1.820E-01  2.000E+01  2.000E+04 -2.154E-01
   1   12   17     1    17    1.4883E+05 -2.1695E+03   1.5100E+05  0.000E+00  0.000E+00  0.000E+00  4.08094E+01  1.844E-01  2.000E+01  2.000E+04 -1.085E-01
   1   12   18     1    18    1.5100E+05 -2.1775E+03   1.5318E+05  0.000E+00  0.000E+00  0.000E+00  4.03338E+01  1.860E-01  2.000E+01  2.000E+04 -1.089E-01
   1   12   19     1    19    1.5318E+05 -3.6771E+03   1.5685E+05  0.000E+00  0.000E+00  0.000E+00  3.98586E+01  1.882E-01  2.000E+01  2.000E+04 -1.839E-01
   1   13   20     1    20    1.5685E+05 -1.2111E+03   1.5807E+05  0.000E+00  0.000E+00  0.000E+00  3.93831E+01  1.899E-01  2.000E+01  2.000E+04 -6.055E-02
   1   14   21     1    21    1.5807E+05 -3.5162E+02   1.5842E+05  0.000E+00  0.000E+00  0.000E+00  3.89064E+01  1.905E-01  2.000E+01  2.000E+04 -1.758E-02
   1   14   22     1    22    1.5842E+05  5.1723E+03   1.5324E+05  0.000E+00  0.000E+00  0.000E+00  3.84274E+01  1.888E-01  2.000E+01  2.000E+04  2.586E-01
   1    9   30     2     1    5.0000E+04 -2.6030E+03   5.2603E+04  0.000E+00  0.000E+00  0.000E+00  4.02427E+01  1.177E-01  2.000E+01  2.000E+04 -1.301E-01
   1    9   29     2     2    5.2603E+04 -2.9370E+03   5.5540E+04  0.000E+00  0.000E+00  0.000E+00  3.99964E+01  1.214E-01  2.000E+01  2.000E+04 -1.469E-01
   1    9   28     2     3    5.5540E+04 -3.3273E+03   5.8867E+04  0.000E+00  0.000E+00  0.000E+00  3.97506E+01  1.256E-01  2.000E+01  2.000E+04 -1.664E-01
   1    9   27     2     4    5.8867E+04 -6.0827E+03   6.4950E+04  0.000E+00  0.000E+00  0.000E+00  3.95067E+01  1.317E-01  2.000E+01  2.000E+04 -3.041E-01
   1   10   26     2     5    6.4950E+04 -3.5918E+03   6.8542E+04  0.000E+00  0.000E+00  0.000E+00  3.92628E+01  1.378E-01  2.000E+01  2.000E+04 -1.796E-01
   1   11   25     2     6    6.8542E+04 -2.4417E+03   7.0984E+04  0.000E+00  0.000E+00  0.000E+00  3.90165E+01  1.415E-01  2.000E+01  2.000E+04 -1.221E-01
   1   12   24     2     7    7.0984E+04 -1.5316E+03   7.2515E+04  0.000E+00  0.000E+00  0.000E+00  3.87689E+01  1.439E-01  2.000E+01  2.000E+04 -7.658E-02
   1   13   23     2     8    7.2515E+04 -8.0093E+02   7.3316E+04  0.000E+00  0.000E+00  0.000E+00  3.85203E+01  1.453E-01  2.000E+01  2.000E+04 -4.005E-02
   1   14   22     2     9    7.3316E+04  2.0157E+03   7.1300E+04  0.000E+00  0.000E+00  0.000E+00  3.82696E+01  1.446E-01  2.000E+01  2.000E+04  1.008E-01
   1   14   22     3     1    2.2454E+05 -8.3209E+03   2.3287E+05  0.000E+00  0.000E+00  0.000E+00  3.77527E+01  1.972E-01  2.000E+01  2.000E+04 -4.160E-01
   1   15   23     3     2    2.3287E+05 -1.9772E+03   2.3484E+05  0.000E+00  0.000E+00  0.000E+00  3.68665E+01  1.998E-01  2.000E+01  2.000E+04 -9.886E-02
   1   15   24     3     3    2.3484E+05 -1.5283E+03   2.3637E+05  0.000E+00  0.000E+00  0.000E+00  3.59785E+01  2.007E-01  2.000E+01  2.000E+04 -7.642E-02
   1   15   25     3     4    2.3637E+05 -1.3412E+03   2.3771E+05  0.000E+00  0.000E+00  0.000E+00  3.50904E+01  2.015E-01  2.000E+01  2.000E+04 -6.706E-02
   1   15   26     3     5    2.3771E+05 -1.7273E+03   2.3944E+05  0.000E+00  0.000E+00  0.000E+00  3.42022E+01  2.022E-01  2.000E+01  2.000E+04 -8.637E-02
   1   16   27     3     6    2.3944E+05 -2.8437E+03   2.4228E+05  0.000E+00  0.000E+00  0.000E+00  3.33145E+01  2.034E-01  2.000E+01  2.000E+04 -1.422E-01
   1   17   28     3     7    2.4228E+05 -3.7738E+03   2.4606E+05  0.000E+00  0.000E+00  0.000E+00  3.24273E+01  2.051E-01  2.000E+01  2.000E+04 -1.887E-01
   1   18   29     3     8    2.4606E+05 -5.5555E+03   2.5161E+05  0.000E+00  0.000E+00  0.000E+00  3.15408E+01  2.074E-01  2.000E+01  2.000E+04 -2.778E-01
   1   18   30     3     9    2.5161E+05 -4.6530E+03   2.5627E+05  0.000E+00  0.000E+00  0.000E+00  3.06544E+01  2.100E-01  2.000E+01  2.000E+04 -2.327E-01



1
  VOLUMETRIC BUDGET FOR ENTIRE MODEL AT END OF TIME STEP    1, STRESS PERIOD   3
  ------------------------------------------------------------------------------

     CUMULATIVE VOLUMES      L**3       RATES FOR THIS TIME STEP      L**3/T
     ------------------                 ------------------------

           IN:                                      IN:
           ---                                      ---
             STORAGE =    21564864.0000               STORAGE =       22539.6738
       CONSTANT HEAD =    26943632.0000         CONSTANT HEAD =      116246.1641
               WELLS =           0.0000                 WELLS =           0.0000
            RECHARGE =     6292800.0000              RECHARGE =           0.0000
      STREAM LEAKAGE =     3996688.2500        STREAM LEAKAGE =        7188.0190

            TOTAL IN =    58797984.0000              TOTAL IN =      145973.8594

          OUT:                                     OUT:
          ----                                     ----
             STORAGE =      278884.0000               STORAGE =        2215.8899
       CONSTANT HEAD =           0.0000         CONSTANT HEAD =           0.0000
               WELLS =    15008857.0000                 WELLS =       30303.6133
            RECHARGE =           0.0000              RECHARGE =           0.0000
      STREAM LEAKAGE =    43510256.0000        STREAM LEAKAGE =      113453.7266

           TOTAL OUT =    58797996.0000             TOTAL OUT =      145973.2344

            IN - OUT =         -12.0000              IN - OUT =           0.6250

 PERCENT DISCREPANCY =          -0.00     PERCENT DISCREPANCY =           0.00






         TIME SUMMARY AT END OF TIME STEP    1 IN STRESS PERIOD    3
                    SECONDS     MINUTES      HOURS       DAYS        YEARS
                    -----------------------------------------------------------
   TIME STEP LENGTH 7.86240E+06 1.31040E+05  2184.0      91.000     0.24914    
 STRESS PERIOD TIME 7.86240E+06 1.31040E+05  2184.0      91.000     0.24914    
         TOTAL TIME 2.36736E+07 3.94560E+05  6576.0      274.00     0.75017    
1
1
                            STRESS PERIOD NO.    4, LENGTH =   91.00000    
                            -----------------------------------------------

                              NUMBER OF TIME STEPS =     1

                               MULTIPLIER FOR DELT =     1.500

                            INITIAL TIME STEP SIZE =   91.00000    

 WELL NO.  LAYER   ROW   COL   STRESS RATE         
 --------------------------------------------------
      1      1     12     11      -4035.    
      2      1     16     17       0.000    
      3      1     11     22       0.000    
      4      1     14     25     -0.2942E+05

      4 WELLS

                 RECHARGE =  1.000000E-03

 REUSING STREAM SEGMENT DATA FROM LAST STRESS PERIOD
 
 SOLVING FOR HEAD 


     5 CALLS TO PCG ROUTINE FOR TIME STEP   1 IN STRESS PERIOD    4
    18 TOTAL ITERATIONS

 NO OUTPUT CONTROL FOR STRESS PERIOD    4   TIME STEP    1



 STREAM LISTING     PERIOD      4   STEP        1

 LAYER ROW COL. STREAM  RCH.  FLOW INTO     FLOW TO   FLOW OUT OF   OVRLND.     DIRECT     STREAM       STREAM     STREAM     STREAM   STREAMBED  STREAMBED
                SEG.NO.  NO.  STRM. RCH.    AQUIFER    STRM. RCH.    RUNOFF     PRECIP       ET          HEAD       DEPTH      WIDTH   CONDCTNC.   GRADIENT

   1   13    1     1     1    1.0000E+05 -2.9125E+03   1.0291E+05  0.000E+00  0.000E+00  0.000E+00  4.84073E+01  1.459E-01  2.000E+01  2.000E+04 -1.456E-01
   1   13    2     1     2    1.0291E+05 -4.8432E+03   1.0776E+05  0.000E+00  0.000E+00  0.000E+00  4.79333E+01  1.492E-01  2.000E+01  2.000E+04 -2.422E-01
   1   14    3     1     3    1.0776E+05 -3.8784E+03   1.1163E+05  0.000E+00  0.000E+00  0.000E+00  4.74597E+01  1.529E-01  2.000E+01  2.000E+04 -1.939E-01
   1   15    4     1     4    1.1163E+05 -3.7664E+03   1.1540E+05  0.000E+00  0.000E+00  0.000E+00  4.69856E+01  1.561E-01  2.000E+01  2.000E+04 -1.883E-01
   1   16    5     1     5    1.1540E+05 -4.1078E+03   1.1951E+05  0.000E+00  0.000E+00  0.000E+00  4.65116E+01  1.593E-01  2.000E+01  2.000E+04 -2.054E-01
   1   16    6     1     6    1.1951E+05 -3.2138E+03   1.2272E+05  0.000E+00  0.000E+00  0.000E+00  4.60373E+01  1.623E-01  2.000E+01  2.000E+04 -1.607E-01
   1   16    7     1     7    1.2272E+05 -3.2464E+03   1.2597E+05  0.000E+00  0.000E+00  0.000E+00  4.55626E+01  1.649E-01  2.000E+01  2.000E+04 -1.623E-01
   1   16    8     1     8    1.2597E+05 -3.2391E+03   1.2921E+05  0.000E+00  0.000E+00  0.000E+00  4.50879E+01  1.674E-01  2.000E+01  2.000E+04 -1.620E-01
   1   16    9     1     9    1.2921E+05 -3.1793E+03   1.3239E+05  0.000E+00  0.000E+00  0.000E+00  4.46131E+01  1.699E-01  2.000E+01  2.000E+04 -1.590E-01
   1   16   10     1    10    1.3239E+05 -3.0783E+03   1.3547E+05  0.000E+00  0.000E+00  0.000E+00  4.41383E+01  1.724E-01  2.000E+01  2.000E+04 -1.539E-01
   1   16   11     1    11    1.3547E+05 -2.9782E+03   1.3844E+05  0.000E+00  0.000E+00  0.000E+00  4.36633E+01  1.747E-01  2.000E+01  2.000E+04 -1.489E-01
   1   16   12     1    12    1.3844E+05 -3.8313E+03   1.4227E+05  0.000E+00  0.000E+00  0.000E+00  4.31886E+01  1.773E-01  2.000E+01  2.000E+04 -1.916E-01
   1   15   13     1    13    1.4227E+05 -3.2708E+03   1.4555E+05  0.000E+00  0.000E+00  0.000E+00  4.27141E+01  1.800E-01  2.000E+01  2.000E+04 -1.635E-01
   1   14   14     1    14    1.4555E+05 -3.2675E+03   1.4881E+05  0.000E+00  0.000E+00  0.000E+00  4.22392E+01  1.824E-01  2.000E+01  2.000E+04 -1.634E-01
   1   13   15     1    15    1.4881E+05 -3.6944E+03   1.5251E+05  0.000E+00  0.000E+00  0.000E+00  4.17645E+01  1.850E-01  2.000E+01  2.000E+04 -1.847E-01
   1   12   16     1    16    1.5251E+05 -5.1838E+03   1.5769E+05  0.000E+00  0.000E+00  0.000E+00  4.12905E+01  1.882E-01  2.000E+01  2.000E+04 -2.592E-01
   1   12   17     1    17    1.5769E+05 -3.3867E+03   1.6108E+05  0.000E+00  0.000E+00  0.000E+00  4.08163E+01  1.913E-01  2.000E+01  2.000E+04 -1.693E-01
   1   12   18     1    18    1.6108E+05 -3.2835E+03   1.6436E+05  0.000E+00  0.000E+00  0.000E+00  4.03415E+01  1.937E-01  2.000E+01  2.000E+04 -1.642E-01
   1   12   19     1    19    1.6436E+05 -4.4267E+03   1.6879E+05  0.000E+00  0.000E+00  0.000E+00  3.98669E+01  1.965E-01  2.000E+01  2.000E+04 -2.213E-01
   1   13   20     1    20    1.6879E+05 -2.7296E+03   1.7152E+05  0.000E+00  0.000E+00  0.000E+00  3.93922E+01  1.990E-01  2.000E+01  2.000E+04 -1.365E-01
   1   14   21     1    21    1.7152E+05 -1.9198E+03   1.7344E+05  0.000E+00  0.000E+00  0.000E+00  3.89165E+01  2.006E-01  2.000E+01  2.000E+04 -9.599E-02
   1   14   22     1    22    1.7344E+05  5.4055E+03   1.6803E+05  0.000E+00  0.000E+00  0.000E+00  3.84380E+01  1.994E-01  2.000E+01  2.000E+04  2.703E-01
   1    9   30     2     1    5.0000E+04 -2.6177E+03   5.2618E+04  0.000E+00  0.000E+00  0.000E+00  4.02427E+01  1.177E-01  2.000E+01  2.000E+04 -1.309E-01
   1    9   29     2     2    5.2618E+04 -2.9369E+03   5.5555E+04  0.000E+00  0.000E+00  0.000E+00  3.99965E+01  1.215E-01  2.000E+01  2.000E+04 -1.468E-01
   1    9   28     2     3    5.5555E+04 -3.3048E+03   5.8859E+04  0.000E+00  0.000E+00  0.000E+00  3.97506E+01  1.256E-01  2.000E+01  2.000E+04 -1.652E-01
   1    9   27     2     4    5.8859E+04 -6.0646E+03   6.4924E+04  0.000E+00  0.000E+00  0.000E+00  3.95067E+01  1.317E-01  2.000E+01  2.000E+04 -3.032E-01
   1   10   26     2     5    6.4924E+04 -3.2500E+03   6.8174E+04  0.000E+00  0.000E+00  0.000E+00  3.92626E+01  1.375E-01  2.000E+01  2.000E+04 -1.625E-01
   1   11   25     2     6    6.8174E+04 -1.1653E+03   6.9339E+04  0.000E+00  0.000E+00  0.000E+00  3.90153E+01  1.403E-01  2.000E+01  2.000E+04 -5.827E-02
   1   12   24     2     7    6.9339E+04  8.6006E+02   6.8479E+04  0.000E+00  0.000E+00  0.000E+00  3.87655E+01  1.405E-01  2.000E+01  2.000E+04  4.300E-02
   1   13   23     2     8    6.8479E+04  1.1954E+03   6.7284E+04  0.000E+00  0.000E+00  0.000E+00  3.85142E+01  1.392E-01  2.000E+01  2.000E+04  5.977E-02
   1   14   22     2     9    6.7284E+04  1.8906E+03   6.5393E+04  0.000E+00  0.000E+00  0.000E+00  3.82623E+01  1.373E-01  2.000E+01  2.000E+04  9.453E-02
   1   14   22     3     1    2.3343E+05 -8.2098E+03   2.4164E+05  0.000E+00  0.000E+00  0.000E+00  3.77573E+01  2.017E-01  2.000E+01  2.000E+04 -4.105E-01
   1   15   23     3     2    2.4164E+05 -1.9751E+03   2.4361E+05  0.000E+00  0.000E+00  0.000E+00  3.68710E+01  2.043E-01  2.000E+01  2.000E+04 -9.876E-02
   1   15   24     3     3    2.4361E+05  1.0766E+03   2.4253E+05  0.000E+00  0.000E+00  0.000E+00  3.59823E+01  2.045E-01  2.000E+01  2.000E+04  5.383E-02
   1   15   25     3     4    2.4253E+05  7.3153E+03   2.3522E+05  0.000E+00  0.000E+00  0.000E+00  3.50913E+01  2.024E-01  2.000E+01  2.000E+04  3.658E-01
   1   15   26     3     5    2.3522E+05  1.6220E+03   2.3360E+05  0.000E+00  0.000E+00  0.000E+00  3.42001E+01  2.001E-01  2.000E+01  2.000E+04  8.110E-02
   1   16   27     3     6    2.3360E+05 -2.5047E+03   2.3610E+05  0.000E+00  0.000E+00  0.000E+00  3.33115E+01  2.003E-01  2.000E+01  2.000E+04 -1.252E-01
   1   17   28     3     7    2.3610E+05 -3.8134E+03   2.3991E+05  0.000E+00  0.000E+00  0.000E+00  3.24242E+01  2.020E-01  2.000E+01  2.000E+04 -1.907E-01
   1   18   29     3     8    2.3991E+05 -5.6923E+03   2.4561E+05  0.000E+00  0.000E+00  0.000E+00  3.15377E+01  2.044E-01  2.000E+01  2.000E+04 -2.846E-01
   1   18   30     3     9    2.4561E+05 -4.7281E+03   2.5033E+05  0.000E+00  0.000E+00  0.000E+00  3.06514E+01  2.070E-01  2.000E+01  2.000E+04 -2.364E-01



1
  VOLUMETRIC BUDGET FOR ENTIRE MODEL AT END OF TIME STEP    1, STRESS PERIOD   4
  ------------------------------------------------------------------------------

     CUMULATIVE VOLUMES      L**3       RATES FOR THIS TIME STEP      L**3/T
     ------------------                 ------------------------

           IN:                                      IN:
           ---                                      ---
             STORAGE =    21805752.0000               STORAGE =        2647.1130
       CONSTANT HEAD =    37185276.0000         CONSTANT HEAD =      112545.5547
               WELLS =           0.0000                 WELLS =           0.0000
            RECHARGE =     8804400.0000              RECHARGE =       27600.0000
      STREAM LEAKAGE =     5758947.0000        STREAM LEAKAGE =       19365.4805

            TOTAL IN =    73554376.0000              TOTAL IN =      162158.1406

          OUT:                                     OUT:
          ----                                     ----
             STORAGE =     1098440.7500               STORAGE =        9006.1191
       CONSTANT HEAD =           0.0000         CONSTANT HEAD =           0.0000
               WELLS =    18052932.0000                 WELLS =       33451.3711
            RECHARGE =           0.0000              RECHARGE =           0.0000
      STREAM LEAKAGE =    54402976.0000        STREAM LEAKAGE =      119700.2109

           TOTAL OUT =    73554344.0000             TOTAL OUT =      162157.7031

            IN - OUT =          32.0000              IN - OUT =           0.4375

 PERCENT DISCREPANCY =           0.00     PERCENT DISCREPANCY =           0.00






         TIME SUMMARY AT END OF TIME STEP    1 IN STRESS PERIOD    4
                    SECONDS     MINUTES      HOURS       DAYS        YEARS
                    -----------------------------------------------------------
   TIME STEP LENGTH 7.86240E+06 1.31040E+05  2184.0      91.000     0.24914    
 STRESS PERIOD TIME 7.86240E+06 1.31040E+05  2184.0      91.000     0.24914    
         TOTAL TIME 3.15360E+07 5.25600E+05  8760.0      365.00     0.99932    
1
1
                            STRESS PERIOD NO.    5, LENGTH =   92.00000    
                            -----------------------------------------------

                              NUMBER OF TIME STEPS =     1

                               MULTIPLIER FOR DELT =     1.500

                            INITIAL TIME STEP SIZE =   92.00000    

 WELL NO.  LAYER   ROW   COL   STRESS RATE         
 --------------------------------------------------
      1      1     12     11      -4035.    
      2      1     16     17     -0.5000E+05
      3      1     11     22       0.000    
      4      1     14     25       0.000    

      4 WELLS

                 RECHARGE =  5.000000E-04

 REUSING STREAM SEGMENT DATA FROM LAST STRESS PERIOD
 
 SOLVING FOR HEAD 


     6 CALLS TO PCG ROUTINE FOR TIME STEP   1 IN STRESS PERIOD    5
    21 TOTAL ITERATIONS

 NO OUTPUT CONTROL FOR STRESS PERIOD    5   TIME STEP    1



 STREAM LISTING     PERIOD      5   STEP        1

 LAYER ROW COL. STREAM  RCH.  FLOW INTO     FLOW TO   FLOW OUT OF   OVRLND.     DIRECT     STREAM       STREAM     STREAM     STREAM   STREAMBED  STREAMBED
                SEG.NO.  NO.  STRM. RCH.    AQUIFER    STRM. RCH.    RUNOFF     PRECIP       ET          HEAD       DEPTH      WIDTH   CONDCTNC.   GRADIENT

   1   13    1     1     1    1.0000E+05 -2.7367E+03   1.0274E+05  0.000E+00  0.000E+00  0.000E+00  4.84072E+01  1.458E-01  2.000E+01  2.000E+04 -1.368E-01
   1   13    2     1     2    1.0274E+05 -4.5988E+03   1.0734E+05  0.000E+00  0.000E+00  0.000E+00  4.79331E+01  1.490E-01  2.000E+01  2.000E+04 -2.299E-01
   1   14    3     1     3    1.0734E+05 -3.6504E+03   1.1099E+05  0.000E+00  0.000E+00  0.000E+00  4.74593E+01  1.525E-01  2.000E+01  2.000E+04 -1.825E-01
   1   15    4     1     4    1.1099E+05 -3.5476E+03   1.1453E+05  0.000E+00  0.000E+00  0.000E+00  4.69850E+01  1.555E-01  2.000E+01  2.000E+04 -1.774E-01
   1   16    5     1     5    1.1453E+05 -3.9073E+03   1.1844E+05  0.000E+00  0.000E+00  0.000E+00  4.65108E+01  1.585E-01  2.000E+01  2.000E+04 -1.954E-01
   1   16    6     1     6    1.1844E+05 -3.0405E+03   1.2148E+05  0.000E+00  0.000E+00  0.000E+00  4.60363E+01  1.613E-01  2.000E+01  2.000E+04 -1.520E-01
   1   16    7     1     7    1.2148E+05 -3.0551E+03   1.2454E+05  0.000E+00  0.000E+00  0.000E+00  4.55615E+01  1.638E-01  2.000E+01  2.000E+04 -1.528E-01
   1   16    8     1     8    1.2454E+05 -3.0222E+03   1.2756E+05  0.000E+00  0.000E+00  0.000E+00  4.50867E+01  1.662E-01  2.000E+01  2.000E+04 -1.511E-01
   1   16    9     1     9    1.2756E+05 -2.9207E+03   1.3048E+05  0.000E+00  0.000E+00  0.000E+00  4.46117E+01  1.685E-01  2.000E+01  2.000E+04 -1.460E-01
   1   16   10     1    10    1.3048E+05 -2.7434E+03   1.3322E+05  0.000E+00  0.000E+00  0.000E+00  4.41367E+01  1.708E-01  2.000E+01  2.000E+04 -1.372E-01
   1   16   11     1    11    1.3322E+05 -2.4699E+03   1.3569E+05  0.000E+00  0.000E+00  0.000E+00  4.36614E+01  1.728E-01  2.000E+01  2.000E+04 -1.235E-01
   1   16   12     1    12    1.3569E+05 -2.0404E+03   1.3773E+05  0.000E+00  0.000E+00  0.000E+00  4.31859E+01  1.745E-01  2.000E+01  2.000E+04 -1.020E-01
   1   15   13     1    13    1.3773E+05 -4.9585E+02   1.3823E+05  0.000E+00  0.000E+00  0.000E+00  4.27096E+01  1.755E-01  2.000E+01  2.000E+04 -2.479E-02
   1   14   14     1    14    1.3823E+05  3.4783E+02   1.3788E+05  0.000E+00  0.000E+00  0.000E+00  4.22323E+01  1.755E-01  2.000E+01  2.000E+04  1.739E-02
   1   13   15     1    15    1.3788E+05 -2.7531E+02   1.3816E+05  0.000E+00  0.000E+00  0.000E+00  4.17550E+01  1.755E-01  2.000E+01  2.000E+04 -1.377E-02
   1   12   16     1    16    1.3816E+05 -3.5172E+03   1.4167E+05  0.000E+00  0.000E+00  0.000E+00  4.12792E+01  1.769E-01  2.000E+01  2.000E+04 -1.759E-01
   1   12   17     1    17    1.4167E+05 -1.2731E+03   1.4295E+05  0.000E+00  0.000E+00  0.000E+00  4.08038E+01  1.788E-01  2.000E+01  2.000E+04 -6.366E-02
   1   12   18     1    18    1.4295E+05 -1.3947E+03   1.4434E+05  0.000E+00  0.000E+00  0.000E+00  4.03275E+01  1.798E-01  2.000E+01  2.000E+04 -6.974E-02
   1   12   19     1    19    1.4434E+05 -3.1322E+03   1.4747E+05  0.000E+00  0.000E+00  0.000E+00  3.98519E+01  1.815E-01  2.000E+01  2.000E+04 -1.566E-01
   1   13   20     1    20    1.4747E+05 -2.7706E+02   1.4775E+05  0.000E+00  0.000E+00  0.000E+00  3.93759E+01  1.827E-01  2.000E+01  2.000E+04 -1.385E-02
   1   14   21     1    21    1.4775E+05  5.6461E+02   1.4719E+05  0.000E+00  0.000E+00  0.000E+00  3.88985E+01  1.826E-01  2.000E+01  2.000E+04  2.823E-02
   1   14   22     1    22    1.4719E+05  5.1607E+03   1.4203E+05  0.000E+00  0.000E+00  0.000E+00  3.84191E+01  1.805E-01  2.000E+01  2.000E+04  2.580E-01
   1    9   30     2     1    5.0000E+04 -2.6315E+03   5.2632E+04  0.000E+00  0.000E+00  0.000E+00  4.02427E+01  1.177E-01  2.000E+01  2.000E+04 -1.316E-01
   1    9   29     2     2    5.2632E+04 -2.9644E+03   5.5596E+04  0.000E+00  0.000E+00  0.000E+00  3.99965E+01  1.215E-01  2.000E+01  2.000E+04 -1.482E-01
   1    9   28     2     3    5.5596E+04 -3.3484E+03   5.8944E+04  0.000E+00  0.000E+00  0.000E+00  3.97507E+01  1.257E-01  2.000E+01  2.000E+04 -1.674E-01
   1    9   27     2     4    5.8944E+04 -6.0566E+03   6.5001E+04  0.000E+00  0.000E+00  0.000E+00  3.95068E+01  1.318E-01  2.000E+01  2.000E+04 -3.028E-01
   1   10   26     2     5    6.5001E+04 -3.6181E+03   6.8619E+04  0.000E+00  0.000E+00  0.000E+00  3.92629E+01  1.379E-01  2.000E+01  2.000E+04 -1.809E-01
   1   11   25     2     6    6.8619E+04 -2.5153E+03   7.1134E+04  0.000E+00  0.000E+00  0.000E+00  3.90166E+01  1.416E-01  2.000E+01  2.000E+04 -1.258E-01
   1   12   24     2     7    7.1134E+04 -1.6430E+03   7.2777E+04  0.000E+00  0.000E+00  0.000E+00  3.87691E+01  1.441E-01  2.000E+01  2.000E+04 -8.215E-02
   1   13   23     2     8    7.2777E+04 -8.8572E+02   7.3663E+04  0.000E+00  0.000E+00  0.000E+00  3.85207E+01  1.457E-01  2.000E+01  2.000E+04 -4.429E-02
   1   14   22     2     9    7.3663E+04  2.1761E+03   7.1487E+04  0.000E+00  0.000E+00  0.000E+00  3.82699E+01  1.449E-01  2.000E+01  2.000E+04  1.088E-01
   1   14   22     3     1    2.1351E+05 -8.2824E+03   2.2179E+05  0.000E+00  0.000E+00  0.000E+00  3.77470E+01  1.914E-01  2.000E+01  2.000E+04 -4.141E-01
   1   15   23     3     2    2.2179E+05 -1.6685E+03   2.2346E+05  0.000E+00  0.000E+00  0.000E+00  3.68607E+01  1.940E-01  2.000E+01  2.000E+04 -8.342E-02
   1   15   24     3     3    2.2346E+05 -1.5467E+03   2.2501E+05  0.000E+00  0.000E+00  0.000E+00  3.59726E+01  1.949E-01  2.000E+01  2.000E+04 -7.733E-02
   1   15   25     3     4    2.2501E+05 -1.4800E+03   2.2649E+05  0.000E+00  0.000E+00  0.000E+00  3.50845E+01  1.956E-01  2.000E+01  2.000E+04 -7.400E-02
   1   15   26     3     5    2.2649E+05 -1.8977E+03   2.2839E+05  0.000E+00  0.000E+00  0.000E+00  3.41965E+01  1.965E-01  2.000E+01  2.000E+04 -9.489E-02
   1   16   27     3     6    2.2839E+05 -2.8959E+03   2.3128E+05  0.000E+00  0.000E+00  0.000E+00  3.33089E+01  1.978E-01  2.000E+01  2.000E+04 -1.448E-01
   1   17   28     3     7    2.3128E+05 -3.7999E+03   2.3508E+05  0.000E+00  0.000E+00  0.000E+00  3.24217E+01  1.995E-01  2.000E+01  2.000E+04 -1.900E-01
   1   18   29     3     8    2.3508E+05 -5.5568E+03   2.4064E+05  0.000E+00  0.000E+00  0.000E+00  3.15352E+01  2.019E-01  2.000E+01  2.000E+04 -2.778E-01
   1   18   30     3     9    2.4064E+05 -4.6808E+03   2.4532E+05  0.000E+00  0.000E+00  0.000E+00  3.06489E+01  2.045E-01  2.000E+01  2.000E+04 -2.340E-01



1
  VOLUMETRIC BUDGET FOR ENTIRE MODEL AT END OF TIME STEP    1, STRESS PERIOD   5
  ------------------------------------------------------------------------------

     CUMULATIVE VOLUMES      L**3       RATES FOR THIS TIME STEP      L**3/T
     ------------------                 ------------------------

           IN:                                      IN:
           ---                                      ---
             STORAGE =    23409802.0000               STORAGE =       17435.3281
       CONSTANT HEAD =    48204968.0000         CONSTANT HEAD =      119779.2344
               WELLS =           0.0000                 WELLS =           0.0000
            RECHARGE =    10074000.0000              RECHARGE =       13800.0000
      STREAM LEAKAGE =     6517879.0000        STREAM LEAKAGE =        8249.2627

            TOTAL IN =    88206648.0000              TOTAL IN =      159263.8281

          OUT:                                     OUT:
          ----                                     ----
             STORAGE =     1251150.7500               STORAGE =        1659.8918
       CONSTANT HEAD =           0.0000         CONSTANT HEAD =           0.0000
               WELLS =    23024160.0000                 WELLS =       54035.0859
            RECHARGE =           0.0000              RECHARGE =           0.0000
      STREAM LEAKAGE =    63931436.0000        STREAM LEAKAGE =      103570.2188

           TOTAL OUT =    88206752.0000             TOTAL OUT =      159265.2031

            IN - OUT =        -104.0000              IN - OUT =          -1.3750

 PERCENT DISCREPANCY =          -0.00     PERCENT DISCREPANCY =          -0.00






         TIME SUMMARY AT END OF TIME STEP    1 IN STRESS PERIOD    5
                    SECONDS     MINUTES      HOURS       DAYS        YEARS
                    -----------------------------------------------------------
   TIME STEP LENGTH 7.94880E+06 1.32480E+05  2208.0      92.000     0.25188    
 STRESS PERIOD TIME 7.94880E+06 1.32480E+05  2208.0      92.000     0.25188    
         TOTAL TIME 3.94848E+07 6.58080E+05  10968.      457.00      1.2512    
1
1
                            STRESS PERIOD NO.    6, LENGTH =   91.00000    
                            -----------------------------------------------

                              NUMBER OF TIME STEPS =     1

                               MULTIPLIER FOR DELT =     1.500

                            INITIAL TIME STEP SIZE =   91.00000    

 WELL NO.  LAYER   ROW   COL   STRESS RATE         
 --------------------------------------------------
      1      1     12     11      -4035.    
      2      1     16     17     -0.2714E+05
      3      1     11     22       0.000    
      4      1     14     25     -0.4883E+05

      4 WELLS

                 RECHARGE =  2.000000E-03

 REUSING STREAM SEGMENT DATA FROM LAST STRESS PERIOD
 
 SOLVING FOR HEAD 


     6 CALLS TO PCG ROUTINE FOR TIME STEP   1 IN STRESS PERIOD    6
    21 TOTAL ITERATIONS

 NO OUTPUT CONTROL FOR STRESS PERIOD    6   TIME STEP    1



 STREAM LISTING     PERIOD      6   STEP        1

 LAYER ROW COL. STREAM  RCH.  FLOW INTO     FLOW TO   FLOW OUT OF   OVRLND.     DIRECT     STREAM       STREAM     STREAM     STREAM   STREAMBED  STREAMBED
                SEG.NO.  NO.  STRM. RCH.    AQUIFER    STRM. RCH.    RUNOFF     PRECIP       ET          HEAD       DEPTH      WIDTH   CONDCTNC.   GRADIENT

   1   13    1     1     1    1.0000E+05 -3.1346E+03   1.0313E+05  0.000E+00  0.000E+00  0.000E+00  4.84074E+01  1.460E-01  2.000E+01  2.000E+04 -1.567E-01
   1   13    2     1     2    1.0313E+05 -5.1222E+03   1.0826E+05  0.000E+00  0.000E+00  0.000E+00  4.79336E+01  1.495E-01  2.000E+01  2.000E+04 -2.561E-01
   1   14    3     1     3    1.0826E+05 -4.1874E+03   1.1244E+05  0.000E+00  0.000E+00  0.000E+00  4.74603E+01  1.535E-01  2.000E+01  2.000E+04 -2.094E-01
   1   15    4     1     4    1.1244E+05 -4.0813E+03   1.1653E+05  0.000E+00  0.000E+00  0.000E+00  4.69864E+01  1.569E-01  2.000E+01  2.000E+04 -2.041E-01
   1   16    5     1     5    1.1653E+05 -4.4004E+03   1.2093E+05  0.000E+00  0.000E+00  0.000E+00  4.65126E+01  1.603E-01  2.000E+01  2.000E+04 -2.200E-01
   1   16    6     1     6    1.2093E+05 -3.4277E+03   1.2435E+05  0.000E+00  0.000E+00  0.000E+00  4.60385E+01  1.635E-01  2.000E+01  2.000E+04 -1.714E-01
   1   16    7     1     7    1.2435E+05 -3.4476E+03   1.2780E+05  0.000E+00  0.000E+00  0.000E+00  4.55640E+01  1.662E-01  2.000E+01  2.000E+04 -1.724E-01
   1   16    8     1     8    1.2780E+05 -3.4186E+03   1.3122E+05  0.000E+00  0.000E+00  0.000E+00  4.50894E+01  1.689E-01  2.000E+01  2.000E+04 -1.709E-01
   1   16    9     1     9    1.3122E+05 -3.3205E+03   1.3454E+05  0.000E+00  0.000E+00  0.000E+00  4.46147E+01  1.716E-01  2.000E+01  2.000E+04 -1.660E-01
   1   16   10     1    10    1.3454E+05 -3.1504E+03   1.3769E+05  0.000E+00  0.000E+00  0.000E+00  4.41400E+01  1.740E-01  2.000E+01  2.000E+04 -1.575E-01
   1   16   11     1    11    1.3769E+05 -2.9057E+03   1.4060E+05  0.000E+00  0.000E+00  0.000E+00  4.36650E+01  1.764E-01  2.000E+01  2.000E+04 -1.453E-01
   1   16   12     1    12    1.4060E+05 -2.8910E+03   1.4349E+05  0.000E+00  0.000E+00  0.000E+00  4.31899E+01  1.786E-01  2.000E+01  2.000E+04 -1.446E-01
   1   15   13     1    13    1.4349E+05 -1.7431E+03   1.4523E+05  0.000E+00  0.000E+00  0.000E+00  4.27144E+01  1.803E-01  2.000E+01  2.000E+04 -8.715E-02
   1   14   14     1    14    1.4523E+05 -1.2260E+03   1.4646E+05  0.000E+00  0.000E+00  0.000E+00  4.22382E+01  1.814E-01  2.000E+01  2.000E+04 -6.130E-02
   1   13   15     1    15    1.4646E+05 -1.8064E+03   1.4826E+05  0.000E+00  0.000E+00  0.000E+00  4.17621E+01  1.825E-01  2.000E+01  2.000E+04 -9.032E-02
   1   12   16     1    16    1.4826E+05 -4.4798E+03   1.5274E+05  0.000E+00  0.000E+00  0.000E+00  4.12871E+01  1.849E-01  2.000E+01  2.000E+04 -2.240E-01
   1   12   17     1    17    1.5274E+05 -2.2711E+03   1.5501E+05  0.000E+00  0.000E+00  0.000E+00  4.08123E+01  1.873E-01  2.000E+01  2.000E+04 -1.136E-01
   1   12   18     1    18    1.5501E+05 -2.2981E+03   1.5731E+05  0.000E+00  0.000E+00  0.000E+00  4.03367E+01  1.890E-01  2.000E+01  2.000E+04 -1.149E-01
   1   12   19     1    19    1.5731E+05 -3.9069E+03   1.6122E+05  0.000E+00  0.000E+00  0.000E+00  3.98617E+01  1.912E-01  2.000E+01  2.000E+04 -1.953E-01
   1   13   20     1    20    1.6122E+05 -1.3485E+03   1.6257E+05  0.000E+00  0.000E+00  0.000E+00  3.93863E+01  1.931E-01  2.000E+01  2.000E+04 -6.742E-02
   1   14   21     1    21    1.6257E+05 -4.0993E+02   1.6298E+05  0.000E+00  0.000E+00  0.000E+00  3.89097E+01  1.938E-01  2.000E+01  2.000E+04 -2.050E-02
   1   14   22     1    22    1.6298E+05  5.6564E+03   1.5732E+05  0.000E+00  0.000E+00  0.000E+00  3.84305E+01  1.919E-01  2.000E+01  2.000E+04  2.828E-01
   1    9   30     2     1    5.0000E+04 -2.7551E+03   5.2755E+04  0.000E+00  0.000E+00  0.000E+00  4.02428E+01  1.178E-01  2.000E+01  2.000E+04 -1.378E-01
   1    9   29     2     2    5.2755E+04 -3.0620E+03   5.5817E+04  0.000E+00  0.000E+00  0.000E+00  3.99967E+01  1.217E-01  2.000E+01  2.000E+04 -1.531E-01
   1    9   28     2     3    5.5817E+04 -3.4155E+03   5.9233E+04  0.000E+00  0.000E+00  0.000E+00  3.97510E+01  1.260E-01  2.000E+01  2.000E+04 -1.708E-01
   1    9   27     2     4    5.9233E+04 -6.2530E+03   6.5486E+04  0.000E+00  0.000E+00  0.000E+00  3.95073E+01  1.323E-01  2.000E+01  2.000E+04 -3.126E-01
   1   10   26     2     5    6.5486E+04 -3.1679E+03   6.8654E+04  0.000E+00  0.000E+00  0.000E+00  3.92632E+01  1.382E-01  2.000E+01  2.000E+04 -1.584E-01
   1   11   25     2     6    6.8654E+04 -3.8471E+02   6.9038E+04  0.000E+00  0.000E+00  0.000E+00  3.90154E+01  1.404E-01  2.000E+01  2.000E+04 -1.924E-02
   1   12   24     2     7    6.9038E+04  2.4613E+03   6.6577E+04  0.000E+00  0.000E+00  0.000E+00  3.87641E+01  1.391E-01  2.000E+01  2.000E+04  1.231E-01
   1   13   23     2     8    6.6577E+04  2.5616E+03   6.4015E+04  0.000E+00  0.000E+00  0.000E+00  3.85110E+01  1.360E-01  2.000E+01  2.000E+04  1.281E-01
   1   14   22     2     9    6.4015E+04  2.2058E+03   6.1810E+04  0.000E+00  0.000E+00  0.000E+00  3.82580E+01  1.330E-01  2.000E+01  2.000E+04  1.103E-01
   1   14   22     3     1    2.1913E+05 -7.9574E+03   2.2709E+05  0.000E+00  0.000E+00  0.000E+00  3.77498E+01  1.943E-01  2.000E+01  2.000E+04 -3.979E-01
   1   15   23     3     2    2.2709E+05 -8.9080E+02   2.2798E+05  0.000E+00  0.000E+00  0.000E+00  3.68632E+01  1.966E-01  2.000E+01  2.000E+04 -4.454E-02
   1   15   24     3     3    2.2798E+05  3.1595E+03   2.2482E+05  0.000E+00  0.000E+00  0.000E+00  3.59738E+01  1.960E-01  2.000E+01  2.000E+04  1.580E-01
   1   15   25     3     4    2.2482E+05  1.3340E+04   2.1148E+05  0.000E+00  0.000E+00  0.000E+00  3.50806E+01  1.917E-01  2.000E+01  2.000E+04  6.670E-01
   1   15   26     3     5    2.1148E+05  4.0057E+03   2.0747E+05  0.000E+00  0.000E+00  0.000E+00  3.41871E+01  1.871E-01  2.000E+01  2.000E+04  2.003E-01
   1   16   27     3     6    2.0747E+05 -2.2245E+03   2.0970E+05  0.000E+00  0.000E+00  0.000E+00  3.32977E+01  1.866E-01  2.000E+01  2.000E+04 -1.112E-01
   1   17   28     3     7    2.0970E+05 -3.8668E+03   2.1356E+05  0.000E+00  0.000E+00  0.000E+00  3.24104E+01  1.882E-01  2.000E+01  2.000E+04 -1.933E-01
   1   18   29     3     8    2.1356E+05 -5.8631E+03   2.1943E+05  0.000E+00  0.000E+00  0.000E+00  3.15241E+01  1.908E-01  2.000E+01  2.000E+04 -2.932E-01
   1   18   30     3     9    2.1943E+05 -4.8670E+03   2.2429E+05  0.000E+00  0.000E+00  0.000E+00  3.06381E+01  1.936E-01  2.000E+01  2.000E+04 -2.433E-01



1
  VOLUMETRIC BUDGET FOR ENTIRE MODEL AT END OF TIME STEP    1, STRESS PERIOD   6
  ------------------------------------------------------------------------------

     CUMULATIVE VOLUMES      L**3       RATES FOR THIS TIME STEP      L**3/T
     ------------------                 ------------------------

           IN:                                      IN:
           ---                                      ---
             STORAGE =    23659082.0000               STORAGE =        2739.3379
       CONSTANT HEAD =    58150376.0000         CONSTANT HEAD =      109290.1797
               WELLS =           0.0000                 WELLS =           0.0000
            RECHARGE =    15097200.0000              RECHARGE =       55200.0000
      STREAM LEAKAGE =     9556427.0000        STREAM LEAKAGE =       33390.6406

            TOTAL IN =   106463080.0000              TOTAL IN =      200620.1562

          OUT:                                     OUT:
          ----                                     ----
             STORAGE =     2428172.0000               STORAGE =       12934.2998
       CONSTANT HEAD =           0.0000         CONSTANT HEAD =           0.0000
               WELLS =    30304160.0000                 WELLS =       80000.0000
            RECHARGE =           0.0000              RECHARGE =           0.0000
      STREAM LEAKAGE =    73730784.0000        STREAM LEAKAGE =      107685.1641

           TOTAL OUT =   106463120.0000             TOTAL OUT =      200619.4531

            IN - OUT =         -40.0000              IN - OUT =           0.7031

 PERCENT DISCREPANCY =          -0.00     PERCENT DISCREPANCY =           0.00






         TIME SUMMARY AT END OF TIME STEP    1 IN STRESS PERIOD    6
                    SECONDS     MINUTES      HOURS       DAYS        YEARS
                    -----------------------------------------------------------
   TIME STEP LENGTH 7.86240E+06 1.31040E+05  2184.0      91.000     0.24914    
 STRESS PERIOD TIME 7.86240E+06 1.31040E+05  2184.0      91.000     0.24914    
         TOTAL TIME 4.73472E+07 7.89120E+05  13152.      548.00      1.5003    
1
1
                            STRESS PERIOD NO.    7, LENGTH =   91.00000    
                            -----------------------------------------------

                              NUMBER OF TIME STEPS =     1

                               MULTIPLIER FOR DELT =     1.500

                            INITIAL TIME STEP SIZE =   91.00000    

 WELL NO.  LAYER   ROW   COL   STRESS RATE         
 --------------------------------------------------
      1      1     12     11      -4035.    
      2      1     16     17     -0.2627E+05
      3      1     11     22       0.000    
      4      1     14     25       0.000    

      4 WELLS

                 RECHARGE =   0.00000    

 REUSING STREAM SEGMENT DATA FROM LAST STRESS PERIOD
 
 SOLVING FOR HEAD 


     6 CALLS TO PCG ROUTINE FOR TIME STEP   1 IN STRESS PERIOD    7
    21 TOTAL ITERATIONS

 NO OUTPUT CONTROL FOR STRESS PERIOD    7   TIME STEP    1



 STREAM LISTING     PERIOD      7   STEP        1

 LAYER ROW COL. STREAM  RCH.  FLOW INTO     FLOW TO   FLOW OUT OF   OVRLND.     DIRECT     STREAM       STREAM     STREAM     STREAM   STREAMBED  STREAMBED
                SEG.NO.  NO.  STRM. RCH.    AQUIFER    STRM. RCH.    RUNOFF     PRECIP       ET          HEAD       DEPTH      WIDTH   CONDCTNC.   GRADIENT

   1   13    1     1     1    1.0000E+05 -2.6402E+03   1.0264E+05  0.000E+00  0.000E+00  0.000E+00  4.84072E+01  1.458E-01  2.000E+01  2.000E+04 -1.320E-01
   1   13    2     1     2    1.0264E+05 -4.4731E+03   1.0711E+05  0.000E+00  0.000E+00  0.000E+00  4.79329E+01  1.488E-01  2.000E+01  2.000E+04 -2.237E-01
   1   14    3     1     3    1.0711E+05 -3.5212E+03   1.1063E+05  0.000E+00  0.000E+00  0.000E+00  4.74590E+01  1.522E-01  2.000E+01  2.000E+04 -1.761E-01
   1   15    4     1     4    1.1063E+05 -3.4208E+03   1.1406E+05  0.000E+00  0.000E+00  0.000E+00  4.69847E+01  1.551E-01  2.000E+01  2.000E+04 -1.710E-01
   1   16    5     1     5    1.1406E+05 -3.7946E+03   1.1785E+05  0.000E+00  0.000E+00  0.000E+00  4.65104E+01  1.581E-01  2.000E+01  2.000E+04 -1.897E-01
   1   16    6     1     6    1.1785E+05 -2.9487E+03   1.2080E+05  0.000E+00  0.000E+00  0.000E+00  4.60358E+01  1.608E-01  2.000E+01  2.000E+04 -1.474E-01
   1   16    7     1     7    1.2080E+05 -2.9631E+03   1.2376E+05  0.000E+00  0.000E+00  0.000E+00  4.55609E+01  1.632E-01  2.000E+01  2.000E+04 -1.482E-01
   1   16    8     1     8    1.2376E+05 -2.9334E+03   1.2670E+05  0.000E+00  0.000E+00  0.000E+00  4.50860E+01  1.656E-01  2.000E+01  2.000E+04 -1.467E-01
   1   16    9     1     9    1.2670E+05 -2.8413E+03   1.2954E+05  0.000E+00  0.000E+00  0.000E+00  4.46110E+01  1.678E-01  2.000E+01  2.000E+04 -1.421E-01
   1   16   10     1    10    1.2954E+05 -2.6860E+03   1.3222E+05  0.000E+00  0.000E+00  0.000E+00  4.41359E+01  1.700E-01  2.000E+01  2.000E+04 -1.343E-01
   1   16   11     1    11    1.3222E+05 -2.4694E+03   1.3469E+05  0.000E+00  0.000E+00  0.000E+00  4.36606E+01  1.720E-01  2.000E+01  2.000E+04 -1.235E-01
   1   16   12     1    12    1.3469E+05 -2.4516E+03   1.3714E+05  0.000E+00  0.000E+00  0.000E+00  4.31853E+01  1.739E-01  2.000E+01  2.000E+04 -1.226E-01
   1   15   13     1    13    1.3714E+05 -1.3139E+03   1.3846E+05  0.000E+00  0.000E+00  0.000E+00  4.27094E+01  1.753E-01  2.000E+01  2.000E+04 -6.569E-02
   1   14   14     1    14    1.3846E+05 -8.3753E+02   1.3929E+05  0.000E+00  0.000E+00  0.000E+00  4.22330E+01  1.762E-01  2.000E+01  2.000E+04 -4.188E-02
   1   13   15     1    15    1.3929E+05 -1.4053E+03   1.4070E+05  0.000E+00  0.000E+00  0.000E+00  4.17566E+01  1.770E-01  2.000E+01  2.000E+04 -7.027E-02
   1   12   16     1    16    1.4070E+05 -3.9648E+03   1.4466E+05  0.000E+00  0.000E+00  0.000E+00  4.12813E+01  1.790E-01  2.000E+01  2.000E+04 -1.982E-01
   1   12   17     1    17    1.4466E+05 -1.9574E+03   1.4662E+05  0.000E+00  0.000E+00  0.000E+00  4.08063E+01  1.813E-01  2.000E+01  2.000E+04 -9.787E-02
   1   12   18     1    18    1.4662E+05 -1.9823E+03   1.4860E+05  0.000E+00  0.000E+00  0.000E+00  4.03305E+01  1.827E-01  2.000E+01  2.000E+04 -9.911E-02
   1   12   19     1    19    1.4860E+05 -3.4484E+03   1.5205E+05  0.000E+00  0.000E+00  0.000E+00  3.98552E+01  1.847E-01  2.000E+01  2.000E+04 -1.724E-01
   1   13   20     1    20    1.5205E+05 -1.0262E+03   1.5308E+05  0.000E+00  0.000E+00  0.000E+00  3.93796E+01  1.864E-01  2.000E+01  2.000E+04 -5.131E-02
   1   14   21     1    21    1.5308E+05 -1.7204E+02   1.5325E+05  0.000E+00  0.000E+00  0.000E+00  3.89027E+01  1.868E-01  2.000E+01  2.000E+04 -8.602E-03
   1   14   22     1    22    1.5325E+05  5.1839E+03   1.4807E+05  0.000E+00  0.000E+00  0.000E+00  3.84236E+01  1.850E-01  2.000E+01  2.000E+04  2.592E-01
   1    9   30     2     1    5.0000E+04 -2.5121E+03   5.2512E+04  0.000E+00  0.000E+00  0.000E+00  4.02426E+01  1.176E-01  2.000E+01  2.000E+04 -1.256E-01
   1    9   29     2     2    5.2512E+04 -2.8456E+03   5.5358E+04  0.000E+00  0.000E+00  0.000E+00  3.99963E+01  1.213E-01  2.000E+01  2.000E+04 -1.423E-01
   1    9   28     2     3    5.5358E+04 -3.2321E+03   5.8590E+04  0.000E+00  0.000E+00  0.000E+00  3.97503E+01  1.253E-01  2.000E+01  2.000E+04 -1.616E-01
   1    9   27     2     4    5.8590E+04 -5.9242E+03   6.4514E+04  0.000E+00  0.000E+00  0.000E+00  3.95063E+01  1.313E-01  2.000E+01  2.000E+04 -2.962E-01
   1   10   26     2     5    6.4514E+04 -3.4365E+03   6.7950E+04  0.000E+00  0.000E+00  0.000E+00  3.92622E+01  1.372E-01  2.000E+01  2.000E+04 -1.718E-01
   1   11   25     2     6    6.7950E+04 -2.2960E+03   7.0246E+04  0.000E+00  0.000E+00  0.000E+00  3.90157E+01  1.407E-01  2.000E+01  2.000E+04 -1.148E-01
   1   12   24     2     7    7.0246E+04 -1.4111E+03   7.1658E+04  0.000E+00  0.000E+00  0.000E+00  3.87679E+01  1.429E-01  2.000E+01  2.000E+04 -7.055E-02
   1   13   23     2     8    7.1658E+04 -7.1843E+02   7.2376E+04  0.000E+00  0.000E+00  0.000E+00  3.85192E+01  1.442E-01  2.000E+01  2.000E+04 -3.592E-02
   1   14   22     2     9    7.2376E+04  2.0797E+03   7.0296E+04  0.000E+00  0.000E+00  0.000E+00  3.82684E+01  1.434E-01  2.000E+01  2.000E+04  1.040E-01
   1   14   22     3     1    2.1836E+05 -8.2980E+03   2.2666E+05  0.000E+00  0.000E+00  0.000E+00  3.77495E+01  1.940E-01  2.000E+01  2.000E+04 -4.149E-01
   1   15   23     3     2    2.2666E+05 -1.8168E+03   2.2848E+05  0.000E+00  0.000E+00  0.000E+00  3.68633E+01  1.966E-01  2.000E+01  2.000E+04 -9.084E-02
   1   15   24     3     3    2.2848E+05 -1.4405E+03   2.2992E+05  0.000E+00  0.000E+00  0.000E+00  3.59752E+01  1.974E-01  2.000E+01  2.000E+04 -7.202E-02
   1   15   25     3     4    2.2992E+05 -1.2655E+03   2.3118E+05  0.000E+00  0.000E+00  0.000E+00  3.50870E+01  1.981E-01  2.000E+01  2.000E+04 -6.328E-02
   1   15   26     3     5    2.3118E+05 -1.6389E+03   2.3282E+05  0.000E+00  0.000E+00  0.000E+00  3.41989E+01  1.989E-01  2.000E+01  2.000E+04 -8.194E-02
   1   16   27     3     6    2.3282E+05 -2.7129E+03   2.3554E+05  0.000E+00  0.000E+00  0.000E+00  3.33111E+01  2.000E-01  2.000E+01  2.000E+04 -1.356E-01
   1   17   28     3     7    2.3554E+05 -3.6397E+03   2.3918E+05  0.000E+00  0.000E+00  0.000E+00  3.24238E+01  2.016E-01  2.000E+01  2.000E+04 -1.820E-01
   1   18   29     3     8    2.3918E+05 -5.4273E+03   2.4460E+05  0.000E+00  0.000E+00  0.000E+00  3.15373E+01  2.039E-01  2.000E+01  2.000E+04 -2.714E-01
   1   18   30     3     9    2.4460E+05 -4.5708E+03   2.4917E+05  0.000E+00  0.000E+00  0.000E+00  3.06509E+01  2.064E-01  2.000E+01  2.000E+04 -2.285E-01



1
  VOLUMETRIC BUDGET FOR ENTIRE MODEL AT END OF TIME STEP    1, STRESS PERIOD   7
  ------------------------------------------------------------------------------

     CUMULATIVE VOLUMES      L**3       RATES FOR THIS TIME STEP      L**3/T
     ------------------                 ------------------------

           IN:                                      IN:
           ---                                      ---
             STORAGE =    24606564.0000               STORAGE =       10411.8926
       CONSTANT HEAD =    69225224.0000         CONSTANT HEAD =      121701.6562
               WELLS =           0.0000                 WELLS =           0.0000
            RECHARGE =    15097200.0000              RECHARGE =           0.0000
      STREAM LEAKAGE =    10217414.0000        STREAM LEAKAGE =        7263.5957

            TOTAL IN =   119146400.0000              TOTAL IN =      139377.1406

          OUT:                                     OUT:
          ----                                     ----
             STORAGE =     2667972.2500               STORAGE =        2635.1665
       CONSTANT HEAD =           0.0000         CONSTANT HEAD =           0.0000
               WELLS =    33061788.0000                 WELLS =       30303.6133
            RECHARGE =           0.0000              RECHARGE =           0.0000
      STREAM LEAKAGE =    83416592.0000        STREAM LEAKAGE =      106437.4219

           TOTAL OUT =   119146360.0000             TOTAL OUT =      139376.2031

            IN - OUT =          40.0000              IN - OUT =           0.9375

 PERCENT DISCREPANCY =           0.00     PERCENT DISCREPANCY =           0.00






         TIME SUMMARY AT END OF TIME STEP    1 IN STRESS PERIOD    7
                    SECONDS     MINUTES      HOURS       DAYS        YEARS
                    -----------------------------------------------------------
   TIME STEP LENGTH 7.86240E+06 1.31040E+05  2184.0      91.000     0.24914    
 STRESS PERIOD TIME 7.86240E+06 1.31040E+05  2184.0      91.000     0.24914    
         TOTAL TIME 5.52096E+07 9.20160E+05  15336.      639.00      1.7495    
1
1
                            STRESS PERIOD NO.    8, LENGTH =   91.00000    
                            -----------------------------------------------

                              NUMBER OF TIME STEPS =     1

                               MULTIPLIER FOR DELT =     1.500

                            INITIAL TIME STEP SIZE =   91.00000    

 WELL NO.  LAYER   ROW   COL   STRESS RATE         
 --------------------------------------------------
      1      1     12     11      -4035.    
      2      1     16     17       0.000    
      3      1     11     22       0.000    
      4      1     14     25     -0.2942E+05

      4 WELLS

                 RECHARGE =  1.000000E-03

 REUSING STREAM SEGMENT DATA FROM LAST STRESS PERIOD
 
 SOLVING FOR HEAD 


     6 CALLS TO PCG ROUTINE FOR TIME STEP   1 IN STRESS PERIOD    8
    21 TOTAL ITERATIONS

 NO OUTPUT CONTROL FOR STRESS PERIOD    8   TIME STEP    1



 STREAM LISTING     PERIOD      8   STEP        1

 LAYER ROW COL. STREAM  RCH.  FLOW INTO     FLOW TO   FLOW OUT OF   OVRLND.     DIRECT     STREAM       STREAM     STREAM     STREAM   STREAMBED  STREAMBED
                SEG.NO.  NO.  STRM. RCH.    AQUIFER    STRM. RCH.    RUNOFF     PRECIP       ET          HEAD       DEPTH      WIDTH   CONDCTNC.   GRADIENT

   1   13    1     1     1    1.0000E+05 -2.8113E+03   1.0281E+05  0.000E+00  0.000E+00  0.000E+00  4.84072E+01  1.459E-01  2.000E+01  2.000E+04 -1.406E-01
   1   13    2     1     2    1.0281E+05 -4.6864E+03   1.0750E+05  0.000E+00  0.000E+00  0.000E+00  4.79332E+01  1.491E-01  2.000E+01  2.000E+04 -2.343E-01
   1   14    3     1     3    1.0750E+05 -3.7598E+03   1.1126E+05  0.000E+00  0.000E+00  0.000E+00  4.74595E+01  1.526E-01  2.000E+01  2.000E+04 -1.880E-01
   1   15    4     1     4    1.1126E+05 -3.6660E+03   1.1492E+05  0.000E+00  0.000E+00  0.000E+00  4.69853E+01  1.557E-01  2.000E+01  2.000E+04 -1.833E-01
   1   16    5     1     5    1.1492E+05 -4.0347E+03   1.1896E+05  0.000E+00  0.000E+00  0.000E+00  4.65112E+01  1.589E-01  2.000E+01  2.000E+04 -2.017E-01
   1   16    6     1     6    1.1896E+05 -3.1462E+03   1.2210E+05  0.000E+00  0.000E+00  0.000E+00  4.60368E+01  1.618E-01  2.000E+01  2.000E+04 -1.573E-01
   1   16    7     1     7    1.2210E+05 -3.1738E+03   1.2528E+05  0.000E+00  0.000E+00  0.000E+00  4.55621E+01  1.643E-01  2.000E+01  2.000E+04 -1.587E-01
   1   16    8     1     8    1.2528E+05 -3.1641E+03   1.2844E+05  0.000E+00  0.000E+00  0.000E+00  4.50873E+01  1.668E-01  2.000E+01  2.000E+04 -1.582E-01
   1   16    9     1     9    1.2844E+05 -3.1043E+03   1.3155E+05  0.000E+00  0.000E+00  0.000E+00  4.46125E+01  1.693E-01  2.000E+01  2.000E+04 -1.552E-01
   1   16   10     1    10    1.3155E+05 -3.0051E+03   1.3455E+05  0.000E+00  0.000E+00  0.000E+00  4.41376E+01  1.717E-01  2.000E+01  2.000E+04 -1.503E-01
   1   16   11     1    11    1.3455E+05 -2.9087E+03   1.3746E+05  0.000E+00  0.000E+00  0.000E+00  4.36626E+01  1.740E-01  2.000E+01  2.000E+04 -1.454E-01
   1   16   12     1    12    1.3746E+05 -3.7476E+03   1.4121E+05  0.000E+00  0.000E+00  0.000E+00  4.31879E+01  1.765E-01  2.000E+01  2.000E+04 -1.874E-01
   1   15   13     1    13    1.4121E+05 -3.1644E+03   1.4437E+05  0.000E+00  0.000E+00  0.000E+00  4.27132E+01  1.791E-01  2.000E+01  2.000E+04 -1.582E-01
   1   14   14     1    14    1.4437E+05 -3.1515E+03   1.4752E+05  0.000E+00  0.000E+00  0.000E+00  4.22383E+01  1.815E-01  2.000E+01  2.000E+04 -1.576E-01
   1   13   15     1    15    1.4752E+05 -3.5747E+03   1.5110E+05  0.000E+00  0.000E+00  0.000E+00  4.17635E+01  1.840E-01  2.000E+01  2.000E+04 -1.787E-01
   1   12   16     1    16    1.5110E+05 -5.0528E+03   1.5615E+05  0.000E+00  0.000E+00  0.000E+00  4.12894E+01  1.872E-01  2.000E+01  2.000E+04 -2.526E-01
   1   12   17     1    17    1.5615E+05 -3.3098E+03   1.5946E+05  0.000E+00  0.000E+00  0.000E+00  4.08152E+01  1.902E-01  2.000E+01  2.000E+04 -1.655E-01
   1   12   18     1    18    1.5946E+05 -3.2145E+03   1.6268E+05  0.000E+00  0.000E+00  0.000E+00  4.03403E+01  1.925E-01  2.000E+01  2.000E+04 -1.607E-01
   1   12   19     1    19    1.6268E+05 -4.3469E+03   1.6702E+05  0.000E+00  0.000E+00  0.000E+00  3.98657E+01  1.952E-01  2.000E+01  2.000E+04 -2.173E-01
   1   13   20     1    20    1.6702E+05 -2.6702E+03   1.6969E+05  0.000E+00  0.000E+00  0.000E+00  3.93909E+01  1.977E-01  2.000E+01  2.000E+04 -1.335E-01
   1   14   21     1    21    1.6969E+05 -1.8643E+03   1.7156E+05  0.000E+00  0.000E+00  0.000E+00  3.89152E+01  1.993E-01  2.000E+01  2.000E+04 -9.322E-02
   1   14   22     1    22    1.7156E+05  5.4078E+03   1.6615E+05  0.000E+00  0.000E+00  0.000E+00  3.84367E+01  1.981E-01  2.000E+01  2.000E+04  2.704E-01
   1    9   30     2     1    5.0000E+04 -2.5953E+03   5.2595E+04  0.000E+00  0.000E+00  0.000E+00  4.02427E+01  1.177E-01  2.000E+01  2.000E+04 -1.298E-01
   1    9   29     2     2    5.2595E+04 -2.9136E+03   5.5509E+04  0.000E+00  0.000E+00  0.000E+00  3.99964E+01  1.214E-01  2.000E+01  2.000E+04 -1.457E-01
   1    9   28     2     3    5.5509E+04 -3.2792E+03   5.8788E+04  0.000E+00  0.000E+00  0.000E+00  3.97505E+01  1.255E-01  2.000E+01  2.000E+04 -1.640E-01
   1    9   27     2     4    5.8788E+04 -6.0165E+03   6.4805E+04  0.000E+00  0.000E+00  0.000E+00  3.95066E+01  1.316E-01  2.000E+01  2.000E+04 -3.008E-01
   1   10   26     2     5    6.4805E+04 -3.2046E+03   6.8009E+04  0.000E+00  0.000E+00  0.000E+00  3.92624E+01  1.374E-01  2.000E+01  2.000E+04 -1.602E-01
   1   11   25     2     6    6.8009E+04 -1.1222E+03   6.9131E+04  0.000E+00  0.000E+00  0.000E+00  3.90150E+01  1.400E-01  2.000E+01  2.000E+04 -5.611E-02
   1   12   24     2     7    6.9131E+04  8.9686E+02   6.8235E+04  0.000E+00  0.000E+00  0.000E+00  3.87652E+01  1.402E-01  2.000E+01  2.000E+04  4.484E-02
   1   13   23     2     8    6.8235E+04  1.2215E+03   6.7013E+04  0.000E+00  0.000E+00  0.000E+00  3.85139E+01  1.389E-01  2.000E+01  2.000E+04  6.107E-02
   1   14   22     2     9    6.7013E+04  1.9123E+03   6.5101E+04  0.000E+00  0.000E+00  0.000E+00  3.82619E+01  1.369E-01  2.000E+01  2.000E+04  9.562E-02
   1   14   22     3     1    2.3125E+05 -8.2033E+03   2.3945E+05  0.000E+00  0.000E+00  0.000E+00  3.77562E+01  2.006E-01  2.000E+01  2.000E+04 -4.102E-01
   1   15   23     3     2    2.3945E+05 -1.9267E+03   2.4138E+05  0.000E+00  0.000E+00  0.000E+00  3.68698E+01  2.032E-01  2.000E+01  2.000E+04 -9.633E-02
   1   15   24     3     3    2.4138E+05  1.1022E+03   2.4028E+05  0.000E+00  0.000E+00  0.000E+00  3.59812E+01  2.034E-01  2.000E+01  2.000E+04  5.511E-02
   1   15   25     3     4    2.4028E+05  7.3358E+03   2.3294E+05  0.000E+00  0.000E+00  0.000E+00  3.50901E+01  2.012E-01  2.000E+01  2.000E+04  3.668E-01
   1   15   26     3     5    2.3294E+05  1.6417E+03   2.3130E+05  0.000E+00  0.000E+00  0.000E+00  3.41989E+01  1.989E-01  2.000E+01  2.000E+04  8.209E-02
   1   16   27     3     6    2.3130E+05 -2.4725E+03   2.3377E+05  0.000E+00  0.000E+00  0.000E+00  3.33103E+01  1.992E-01  2.000E+01  2.000E+04 -1.236E-01
   1   17   28     3     7    2.3377E+05 -3.7796E+03   2.3755E+05  0.000E+00  0.000E+00  0.000E+00  3.24230E+01  2.008E-01  2.000E+01  2.000E+04 -1.890E-01
   1   18   29     3     8    2.3755E+05 -5.6578E+03   2.4321E+05  0.000E+00  0.000E+00  0.000E+00  3.15365E+01  2.032E-01  2.000E+01  2.000E+04 -2.829E-01
   1   18   30     3     9    2.4321E+05 -4.7078E+03   2.4792E+05  0.000E+00  0.000E+00  0.000E+00  3.06502E+01  2.058E-01  2.000E+01  2.000E+04 -2.354E-01



1
  VOLUMETRIC BUDGET FOR ENTIRE MODEL AT END OF TIME STEP    1, STRESS PERIOD   8
  ------------------------------------------------------------------------------

     CUMULATIVE VOLUMES      L**3       RATES FOR THIS TIME STEP      L**3/T
     ------------------                 ------------------------

           IN:                                      IN:
           ---                                      ---
             STORAGE =    24742254.0000               STORAGE =        1491.0933
       CONSTANT HEAD =    79653176.0000         CONSTANT HEAD =      114592.9062
               WELLS =           0.0000                 WELLS =           0.0000
            RECHARGE =    17608800.0000              RECHARGE =       27600.0000
      STREAM LEAKAGE =    11993562.0000        STREAM LEAKAGE =       19518.1074

            TOTAL IN =   133997792.0000              TOTAL IN =      163202.1094

          OUT:                                     OUT:
          ----                                     ----
             STORAGE =     3788527.0000               STORAGE =       12313.7871
       CONSTANT HEAD =           0.0000         CONSTANT HEAD =           0.0000
               WELLS =    36105864.0000                 WELLS =       33451.3711
            RECHARGE =           0.0000              RECHARGE =           0.0000
      STREAM LEAKAGE =    94103288.0000        STREAM LEAKAGE =      117436.2578

           TOTAL OUT =   133997680.0000             TOTAL OUT =      163201.4062

            IN - OUT =         112.0000              IN - OUT =           0.7031

 PERCENT DISCREPANCY =           0.00     PERCENT DISCREPANCY =           0.00






         TIME SUMMARY AT END OF TIME STEP    1 IN STRESS PERIOD    8
                    SECONDS     MINUTES      HOURS       DAYS        YEARS
                    -----------------------------------------------------------
   TIME STEP LENGTH 7.86240E+06 1.31040E+05  2184.0      91.000     0.24914    
 STRESS PERIOD TIME 7.86240E+06 1.31040E+05  2184.0      91.000     0.24914    
         TOTAL TIME 6.30720E+07 1.05120E+06  17520.      730.00      1.9986    
1
1
                            STRESS PERIOD NO.    9, LENGTH =   92.00000    
                            -----------------------------------------------

                              NUMBER OF TIME STEPS =     1

                               MULTIPLIER FOR DELT =     1.500

                            INITIAL TIME STEP SIZE =   92.00000    

 WELL NO.  LAYER   ROW   COL   STRESS RATE         
 --------------------------------------------------
      1      1     12     11      -4035.    
      2      1     16     17     -0.5000E+05
      3      1     11     22       0.000    
      4      1     14     25       0.000    

      4 WELLS

                 RECHARGE =  5.000000E-04

 REUSING STREAM SEGMENT DATA FROM LAST STRESS PERIOD
 
 SOLVING FOR HEAD 


     6 CALLS TO PCG ROUTINE FOR TIME STEP   1 IN STRESS PERIOD    9
    21 TOTAL ITERATIONS

 NO OUTPUT CONTROL FOR STRESS PERIOD    9   TIME STEP    1



 STREAM LISTING     PERIOD      9   STEP        1

 LAYER ROW COL. STREAM  RCH.  FLOW INTO     FLOW TO   FLOW OUT OF   OVRLND.     DIRECT     STREAM       STREAM     STREAM     STREAM   STREAMBED  STREAMBED
                SEG.NO.  NO.  STRM. RCH.    AQUIFER    STRM. RCH.    RUNOFF     PRECIP       ET          HEAD       DEPTH      WIDTH   CONDCTNC.   GRADIENT

   1   13    1     1     1    1.0000E+05 -2.6949E+03   1.0269E+05  0.000E+00  0.000E+00  0.000E+00  4.84072E+01  1.458E-01  2.000E+01  2.000E+04 -1.347E-01
   1   13    2     1     2    1.0269E+05 -4.5332E+03   1.0723E+05  0.000E+00  0.000E+00  0.000E+00  4.79330E+01  1.489E-01  2.000E+01  2.000E+04 -2.267E-01
   1   14    3     1     3    1.0723E+05 -3.6030E+03   1.1083E+05  0.000E+00  0.000E+00  0.000E+00  4.74592E+01  1.524E-01  2.000E+01  2.000E+04 -1.801E-01
   1   15    4     1     4    1.1083E+05 -3.5090E+03   1.1434E+05  0.000E+00  0.000E+00  0.000E+00  4.69849E+01  1.553E-01  2.000E+01  2.000E+04 -1.754E-01
   1   16    5     1     5    1.1434E+05 -3.8815E+03   1.1822E+05  0.000E+00  0.000E+00  0.000E+00  4.65106E+01  1.584E-01  2.000E+01  2.000E+04 -1.941E-01
   1   16    6     1     6    1.1822E+05 -3.0151E+03   1.2124E+05  0.000E+00  0.000E+00  0.000E+00  4.60362E+01  1.612E-01  2.000E+01  2.000E+04 -1.508E-01
   1   16    7     1     7    1.2124E+05 -3.0275E+03   1.2426E+05  0.000E+00  0.000E+00  0.000E+00  4.55613E+01  1.636E-01  2.000E+01  2.000E+04 -1.514E-01
   1   16    8     1     8    1.2426E+05 -2.9936E+03   1.2726E+05  0.000E+00  0.000E+00  0.000E+00  4.50864E+01  1.660E-01  2.000E+01  2.000E+04 -1.497E-01
   1   16    9     1     9    1.2726E+05 -2.8922E+03   1.3015E+05  0.000E+00  0.000E+00  0.000E+00  4.46115E+01  1.683E-01  2.000E+01  2.000E+04 -1.446E-01
   1   16   10     1    10    1.3015E+05 -2.7159E+03   1.3287E+05  0.000E+00  0.000E+00  0.000E+00  4.41364E+01  1.705E-01  2.000E+01  2.000E+04 -1.358E-01
   1   16   11     1    11    1.3287E+05 -2.4442E+03   1.3531E+05  0.000E+00  0.000E+00  0.000E+00  4.36611E+01  1.725E-01  2.000E+01  2.000E+04 -1.222E-01
   1   16   12     1    12    1.3531E+05 -2.0116E+03   1.3732E+05  0.000E+00  0.000E+00  0.000E+00  4.31856E+01  1.742E-01  2.000E+01  2.000E+04 -1.006E-01
   1   15   13     1    13    1.3732E+05 -4.5669E+02   1.3778E+05  0.000E+00  0.000E+00  0.000E+00  4.27092E+01  1.751E-01  2.000E+01  2.000E+04 -2.283E-02
   1   14   14     1    14    1.3778E+05  3.9145E+02   1.3739E+05  0.000E+00  0.000E+00  0.000E+00  4.22320E+01  1.752E-01  2.000E+01  2.000E+04  1.957E-02
   1   13   15     1    15    1.3739E+05 -2.2964E+02   1.3762E+05  0.000E+00  0.000E+00  0.000E+00  4.17547E+01  1.751E-01  2.000E+01  2.000E+04 -1.148E-02
   1   12   16     1    16    1.3762E+05 -3.4659E+03   1.4108E+05  0.000E+00  0.000E+00  0.000E+00  4.12788E+01  1.765E-01  2.000E+01  2.000E+04 -1.733E-01
   1   12   17     1    17    1.4108E+05 -1.2444E+03   1.4233E+05  0.000E+00  0.000E+00  0.000E+00  4.08033E+01  1.783E-01  2.000E+01  2.000E+04 -6.222E-02
   1   12   18     1    18    1.4233E+05 -1.3694E+03   1.4370E+05  0.000E+00  0.000E+00  0.000E+00  4.03270E+01  1.793E-01  2.000E+01  2.000E+04 -6.847E-02
   1   12   19     1    19    1.4370E+05 -3.1031E+03   1.4680E+05  0.000E+00  0.000E+00  0.000E+00  3.98514E+01  1.810E-01  2.000E+01  2.000E+04 -1.552E-01
   1   13   20     1    20    1.4680E+05 -2.5708E+02   1.4706E+05  0.000E+00  0.000E+00  0.000E+00  3.93754E+01  1.822E-01  2.000E+01  2.000E+04 -1.285E-02
   1   14   21     1    21    1.4706E+05  5.8216E+02   1.4647E+05  0.000E+00  0.000E+00  0.000E+00  3.88980E+01  1.821E-01  2.000E+01  2.000E+04  2.911E-02
   1   14   22     1    22    1.4647E+05  5.1604E+03   1.4131E+05  0.000E+00  0.000E+00  0.000E+00  3.84186E+01  1.799E-01  2.000E+01  2.000E+04  2.580E-01
   1    9   30     2     1    5.0000E+04 -2.6253E+03   5.2625E+04  0.000E+00  0.000E+00  0.000E+00  4.02427E+01  1.177E-01  2.000E+01  2.000E+04 -1.313E-01
   1    9   29     2     2    5.2625E+04 -2.9578E+03   5.5583E+04  0.000E+00  0.000E+00  0.000E+00  3.99965E+01  1.215E-01  2.000E+01  2.000E+04 -1.479E-01
   1    9   28     2     3    5.5583E+04 -3.3407E+03   5.8924E+04  0.000E+00  0.000E+00  0.000E+00  3.97507E+01  1.257E-01  2.000E+01  2.000E+04 -1.670E-01
   1    9   27     2     4    5.8924E+04 -6.0408E+03   6.4965E+04  0.000E+00  0.000E+00  0.000E+00  3.95068E+01  1.318E-01  2.000E+01  2.000E+04 -3.020E-01
   1   10   26     2     5    6.4965E+04 -3.6034E+03   6.8568E+04  0.000E+00  0.000E+00  0.000E+00  3.92628E+01  1.378E-01  2.000E+01  2.000E+04 -1.802E-01
   1   11   25     2     6    6.8568E+04 -2.5011E+03   7.1069E+04  0.000E+00  0.000E+00  0.000E+00  3.90166E+01  1.416E-01  2.000E+01  2.000E+04 -1.251E-01
   1   12   24     2     7    7.1069E+04 -1.6305E+03   7.2700E+04  0.000E+00  0.000E+00  0.000E+00  3.87691E+01  1.441E-01  2.000E+01  2.000E+04 -8.153E-02
   1   13   23     2     8    7.2700E+04 -8.7664E+02   7.3576E+04  0.000E+00  0.000E+00  0.000E+00  3.85206E+01  1.456E-01  2.000E+01  2.000E+04 -4.383E-02
   1   14   22     2     9    7.3576E+04  2.1843E+03   7.1392E+04  0.000E+00  0.000E+00  0.000E+00  3.82698E+01  1.448E-01  2.000E+01  2.000E+04  1.092E-01
   1   14   22     3     1    2.1271E+05 -8.2806E+03   2.2099E+05  0.000E+00  0.000E+00  0.000E+00  3.77465E+01  1.910E-01  2.000E+01  2.000E+04 -4.140E-01
   1   15   23     3     2    2.2099E+05 -1.6536E+03   2.2264E+05  0.000E+00  0.000E+00  0.000E+00  3.68603E+01  1.936E-01  2.000E+01  2.000E+04 -8.268E-02
   1   15   24     3     3    2.2264E+05 -1.5390E+03   2.2418E+05  0.000E+00  0.000E+00  0.000E+00  3.59722E+01  1.944E-01  2.000E+01  2.000E+04 -7.695E-02
   1   15   25     3     4    2.2418E+05 -1.4740E+03   2.2565E+05  0.000E+00  0.000E+00  0.000E+00  3.50841E+01  1.952E-01  2.000E+01  2.000E+04 -7.370E-02
   1   15   26     3     5    2.2565E+05 -1.8928E+03   2.2755E+05  0.000E+00  0.000E+00  0.000E+00  3.41961E+01  1.961E-01  2.000E+01  2.000E+04 -9.464E-02
   1   16   27     3     6    2.2755E+05 -2.8872E+03   2.3043E+05  0.000E+00  0.000E+00  0.000E+00  3.33084E+01  1.973E-01  2.000E+01  2.000E+04 -1.444E-01
   1   17   28     3     7    2.3043E+05 -3.7907E+03   2.3422E+05  0.000E+00  0.000E+00  0.000E+00  3.24213E+01  1.990E-01  2.000E+01  2.000E+04 -1.895E-01
   1   18   29     3     8    2.3422E+05 -5.5471E+03   2.3977E+05  0.000E+00  0.000E+00  0.000E+00  3.15348E+01  2.014E-01  2.000E+01  2.000E+04 -2.774E-01
   1   18   30     3     9    2.3977E+05 -4.6754E+03   2.4445E+05  0.000E+00  0.000E+00  0.000E+00  3.06485E+01  2.040E-01  2.000E+01  2.000E+04 -2.338E-01



1
  VOLUMETRIC BUDGET FOR ENTIRE MODEL AT END OF TIME STEP    1, STRESS PERIOD   9
  ------------------------------------------------------------------------------

     CUMULATIVE VOLUMES      L**3       RATES FOR THIS TIME STEP      L**3/T
     ------------------                 ------------------------

           IN:                                      IN:
           ---                                      ---
             STORAGE =    26195942.0000               STORAGE =       15800.9648
       CONSTANT HEAD =    90743896.0000         CONSTANT HEAD =      120551.3047
               WELLS =           0.0000                 WELLS =           0.0000
            RECHARGE =    18878400.0000              RECHARGE =       13800.0000
      STREAM LEAKAGE =    12758845.0000        STREAM LEAKAGE =        8318.2979

            TOTAL IN =   148577072.0000              TOTAL IN =      158470.5625

          OUT:                                     OUT:
          ----                                     ----
             STORAGE =     3942391.2500               STORAGE =        1672.4384
       CONSTANT HEAD =           0.0000         CONSTANT HEAD =           0.0000
               WELLS =    41077092.0000                 WELLS =       54035.0859
            RECHARGE =           0.0000              RECHARGE =           0.0000
      STREAM LEAKAGE =   103557632.0000        STREAM LEAKAGE =      102764.6094

           TOTAL OUT =   148577104.0000             TOTAL OUT =      158472.1250

            IN - OUT =         -32.0000              IN - OUT =          -1.5625

 PERCENT DISCREPANCY =          -0.00     PERCENT DISCREPANCY =          -0.00






         TIME SUMMARY AT END OF TIME STEP    1 IN STRESS PERIOD    9
                    SECONDS     MINUTES      HOURS       DAYS        YEARS
                    -----------------------------------------------------------
   TIME STEP LENGTH 7.94880E+06 1.32480E+05  2208.0      92.000     0.25188    
 STRESS PERIOD TIME 7.94880E+06 1.32480E+05  2208.0      92.000     0.25188    
         TOTAL TIME 7.10208E+07 1.18368E+06  19728.      822.00      2.2505    
1
1
                            STRESS PERIOD NO.   10, LENGTH =   91.00000    
                            -----------------------------------------------

                              NUMBER OF TIME STEPS =     1

                               MULTIPLIER FOR DELT =     1.500

                            INITIAL TIME STEP SIZE =   91.00000    

 WELL NO.  LAYER   ROW   COL   STRESS RATE         
 --------------------------------------------------
      1      1     12     11      -4035.    
      2      1     16     17     -0.2714E+05
      3      1     11     22       0.000    
      4      1     14     25     -0.4883E+05

      4 WELLS

                 RECHARGE =  2.000000E-03

 REUSING STREAM SEGMENT DATA FROM LAST STRESS PERIOD
 
 SOLVING FOR HEAD 


     6 CALLS TO PCG ROUTINE FOR TIME STEP   1 IN STRESS PERIOD   10
    21 TOTAL ITERATIONS

 NO OUTPUT CONTROL FOR STRESS PERIOD   10   TIME STEP    1



 STREAM LISTING     PERIOD     10   STEP        1

 LAYER ROW COL. STREAM  RCH.  FLOW INTO     FLOW TO   FLOW OUT OF   OVRLND.     DIRECT     STREAM       STREAM     STREAM     STREAM   STREAMBED  STREAMBED
                SEG.NO.  NO.  STRM. RCH.    AQUIFER    STRM. RCH.    RUNOFF     PRECIP       ET          HEAD       DEPTH      WIDTH   CONDCTNC.   GRADIENT

   1   13    1     1     1    1.0000E+05 -3.1171E+03   1.0312E+05  0.000E+00  0.000E+00  0.000E+00  4.84074E+01  1.460E-01  2.000E+01  2.000E+04 -1.559E-01
   1   13    2     1     2    1.0312E+05 -5.0944E+03   1.0821E+05  0.000E+00  0.000E+00  0.000E+00  4.79336E+01  1.495E-01  2.000E+01  2.000E+04 -2.547E-01
   1   14    3     1     3    1.0821E+05 -4.1679E+03   1.1238E+05  0.000E+00  0.000E+00  0.000E+00  4.74602E+01  1.534E-01  2.000E+01  2.000E+04 -2.084E-01
   1   15    4     1     4    1.1238E+05 -4.0659E+03   1.1645E+05  0.000E+00  0.000E+00  0.000E+00  4.69864E+01  1.568E-01  2.000E+01  2.000E+04 -2.033E-01
   1   16    5     1     5    1.1645E+05 -4.3910E+03   1.2084E+05  0.000E+00  0.000E+00  0.000E+00  4.65125E+01  1.603E-01  2.000E+01  2.000E+04 -2.196E-01
   1   16    6     1     6    1.2084E+05 -3.4179E+03   1.2425E+05  0.000E+00  0.000E+00  0.000E+00  4.60384E+01  1.634E-01  2.000E+01  2.000E+04 -1.709E-01
   1   16    7     1     7    1.2425E+05 -3.4367E+03   1.2769E+05  0.000E+00  0.000E+00  0.000E+00  4.55639E+01  1.661E-01  2.000E+01  2.000E+04 -1.718E-01
   1   16    8     1     8    1.2769E+05 -3.4074E+03   1.3110E+05  0.000E+00  0.000E+00  0.000E+00  4.50893E+01  1.688E-01  2.000E+01  2.000E+04 -1.704E-01
   1   16    9     1     9    1.3110E+05 -3.3093E+03   1.3441E+05  0.000E+00  0.000E+00  0.000E+00  4.46146E+01  1.715E-01  2.000E+01  2.000E+04 -1.655E-01
   1   16   10     1    10    1.3441E+05 -3.1397E+03   1.3755E+05  0.000E+00  0.000E+00  0.000E+00  4.41399E+01  1.739E-01  2.000E+01  2.000E+04 -1.570E-01
   1   16   11     1    11    1.3755E+05 -2.8959E+03   1.4044E+05  0.000E+00  0.000E+00  0.000E+00  4.36649E+01  1.762E-01  2.000E+01  2.000E+04 -1.448E-01
   1   16   12     1    12    1.4044E+05 -2.8808E+03   1.4332E+05  0.000E+00  0.000E+00  0.000E+00  4.31898E+01  1.784E-01  2.000E+01  2.000E+04 -1.440E-01
   1   15   13     1    13    1.4332E+05 -1.7281E+03   1.4505E+05  0.000E+00  0.000E+00  0.000E+00  4.27143E+01  1.802E-01  2.000E+01  2.000E+04 -8.641E-02
   1   14   14     1    14    1.4505E+05 -1.2090E+03   1.4626E+05  0.000E+00  0.000E+00  0.000E+00  4.22381E+01  1.813E-01  2.000E+01  2.000E+04 -6.045E-02
   1   13   15     1    15    1.4626E+05 -1.7884E+03   1.4805E+05  0.000E+00  0.000E+00  0.000E+00  4.17619E+01  1.824E-01  2.000E+01  2.000E+04 -8.942E-02
   1   12   16     1    16    1.4805E+05 -4.4592E+03   1.5251E+05  0.000E+00  0.000E+00  0.000E+00  4.12870E+01  1.847E-01  2.000E+01  2.000E+04 -2.230E-01
   1   12   17     1    17    1.5251E+05 -2.2599E+03   1.5477E+05  0.000E+00  0.000E+00  0.000E+00  4.08122E+01  1.872E-01  2.000E+01  2.000E+04 -1.130E-01
   1   12   18     1    18    1.5477E+05 -2.2885E+03   1.5706E+05  0.000E+00  0.000E+00  0.000E+00  4.03366E+01  1.888E-01  2.000E+01  2.000E+04 -1.144E-01
   1   12   19     1    19    1.5706E+05 -3.8959E+03   1.6095E+05  0.000E+00  0.000E+00  0.000E+00  3.98615E+01  1.911E-01  2.000E+01  2.000E+04 -1.948E-01
   1   13   20     1    20    1.6095E+05 -1.3415E+03   1.6229E+05  0.000E+00  0.000E+00  0.000E+00  3.93861E+01  1.929E-01  2.000E+01  2.000E+04 -6.707E-02
   1   14   21     1    21    1.6229E+05 -4.0419E+02   1.6270E+05  0.000E+00  0.000E+00  0.000E+00  3.89095E+01  1.936E-01  2.000E+01  2.000E+04 -2.021E-02
   1   14   22     1    22    1.6270E+05  5.6562E+03   1.5704E+05  0.000E+00  0.000E+00  0.000E+00  3.84303E+01  1.917E-01  2.000E+01  2.000E+04  2.828E-01
   1    9   30     2     1    5.0000E+04 -2.7531E+03   5.2753E+04  0.000E+00  0.000E+00  0.000E+00  4.02428E+01  1.178E-01  2.000E+01  2.000E+04 -1.377E-01
   1    9   29     2     2    5.2753E+04 -3.0599E+03   5.5813E+04  0.000E+00  0.000E+00  0.000E+00  3.99967E+01  1.217E-01  2.000E+01  2.000E+04 -1.530E-01
   1    9   28     2     3    5.5813E+04 -3.4129E+03   5.9226E+04  0.000E+00  0.000E+00  0.000E+00  3.97510E+01  1.260E-01  2.000E+01  2.000E+04 -1.706E-01
   1    9   27     2     4    5.9226E+04 -6.2474E+03   6.5473E+04  0.000E+00  0.000E+00  0.000E+00  3.95073E+01  1.323E-01  2.000E+01  2.000E+04 -3.124E-01
   1   10   26     2     5    6.5473E+04 -3.1627E+03   6.8636E+04  0.000E+00  0.000E+00  0.000E+00  3.92632E+01  1.382E-01  2.000E+01  2.000E+04 -1.581E-01
   1   11   25     2     6    6.8636E+04 -3.7960E+02   6.9016E+04  0.000E+00  0.000E+00  0.000E+00  3.90154E+01  1.404E-01  2.000E+01  2.000E+04 -1.898E-02
   1   12   24     2     7    6.9016E+04  2.4658E+03   6.6550E+04  0.000E+00  0.000E+00  0.000E+00  3.87641E+01  1.391E-01  2.000E+01  2.000E+04  1.233E-01
   1   13   23     2     8    6.6550E+04  2.5650E+03   6.3985E+04  0.000E+00  0.000E+00  0.000E+00  3.85110E+01  1.360E-01  2.000E+01  2.000E+04  1.282E-01
   1   14   22     2     9    6.3985E+04  2.2088E+03   6.1776E+04  0.000E+00  0.000E+00  0.000E+00  3.82579E+01  1.329E-01  2.000E+01  2.000E+04  1.104E-01
   1   14   22     3     1    2.1882E+05 -7.9568E+03   2.2678E+05  0.000E+00  0.000E+00  0.000E+00  3.77497E+01  1.941E-01  2.000E+01  2.000E+04 -3.978E-01
   1   15   23     3     2    2.2678E+05 -8.8615E+02   2.2766E+05  0.000E+00  0.000E+00  0.000E+00  3.68631E+01  1.964E-01  2.000E+01  2.000E+04 -4.431E-02
   1   15   24     3     3    2.2766E+05  3.1619E+03   2.2450E+05  0.000E+00  0.000E+00  0.000E+00  3.59736E+01  1.958E-01  2.000E+01  2.000E+04  1.581E-01
   1   15   25     3     4    2.2450E+05  1.3342E+04   2.1116E+05  0.000E+00  0.000E+00  0.000E+00  3.50804E+01  1.915E-01  2.000E+01  2.000E+04  6.671E-01
   1   15   26     3     5    2.1116E+05  4.0071E+03   2.0715E+05  0.000E+00  0.000E+00  0.000E+00  3.41869E+01  1.869E-01  2.000E+01  2.000E+04  2.004E-01
   1   16   27     3     6    2.0715E+05 -2.2220E+03   2.0937E+05  0.000E+00  0.000E+00  0.000E+00  3.32975E+01  1.864E-01  2.000E+01  2.000E+04 -1.111E-01
   1   17   28     3     7    2.0937E+05 -3.8641E+03   2.1324E+05  0.000E+00  0.000E+00  0.000E+00  3.24103E+01  1.880E-01  2.000E+01  2.000E+04 -1.932E-01
   1   18   29     3     8    2.1324E+05 -5.8602E+03   2.1910E+05  0.000E+00  0.000E+00  0.000E+00  3.15240E+01  1.906E-01  2.000E+01  2.000E+04 -2.930E-01
   1   18   30     3     9    2.1910E+05 -4.8655E+03   2.2396E+05  0.000E+00  0.000E+00  0.000E+00  3.06379E+01  1.934E-01  2.000E+01  2.000E+04 -2.433E-01



1
  VOLUMETRIC BUDGET FOR ENTIRE MODEL AT END OF TIME STEP    1, STRESS PERIOD  10
  ------------------------------------------------------------------------------

     CUMULATIVE VOLUMES      L**3       RATES FOR THIS TIME STEP      L**3/T
     ------------------                 ------------------------

           IN:                                      IN:
           ---                                      ---
             STORAGE =    26444994.0000               STORAGE =        2736.8413
       CONSTANT HEAD =   100716440.0000         CONSTANT HEAD =      109588.4062
               WELLS =           0.0000                 WELLS =           0.0000
            RECHARGE =    23901600.0000              RECHARGE =       55200.0000
      STREAM LEAKAGE =    15798882.0000        STREAM LEAKAGE =       33406.9961

            TOTAL IN =   166861920.0000              TOTAL IN =      200932.2500

          OUT:                                     OUT:
          ----                                     ----
             STORAGE =     5176550.0000               STORAGE =       13562.1807
       CONSTANT HEAD =           0.0000         CONSTANT HEAD =           0.0000
               WELLS =    48357092.0000                 WELLS =       80000.0000
            RECHARGE =           0.0000              RECHARGE =           0.0000
      STREAM LEAKAGE =   113328216.0000        STREAM LEAKAGE =      107369.0781

           TOTAL OUT =   166861856.0000             TOTAL OUT =      200931.2656

            IN - OUT =          64.0000              IN - OUT =           0.9844

 PERCENT DISCREPANCY =           0.00     PERCENT DISCREPANCY =           0.00






         TIME SUMMARY AT END OF TIME STEP    1 IN STRESS PERIOD   10
                    SECONDS     MINUTES      HOURS       DAYS        YEARS
                    -----------------------------------------------------------
   TIME STEP LENGTH 7.86240E+06 1.31040E+05  2184.0      91.000     0.24914    
 STRESS PERIOD TIME 7.86240E+06 1.31040E+05  2184.0      91.000     0.24914    
         TOTAL TIME 7.88832E+07 1.31472E+06  21912.      913.00      2.4997    
1
1
                            STRESS PERIOD NO.   11, LENGTH =   91.00000    
                            -----------------------------------------------

                              NUMBER OF TIME STEPS =     1

                               MULTIPLIER FOR DELT =     1.500

                            INITIAL TIME STEP SIZE =   91.00000    

 WELL NO.  LAYER   ROW   COL   STRESS RATE         
 --------------------------------------------------
      1      1     12     11      -4035.    
      2      1     16     17     -0.2627E+05
      3      1     11     22       0.000    
      4      1     14     25       0.000    

      4 WELLS

                 RECHARGE =   0.00000    

 REUSING STREAM SEGMENT DATA FROM LAST STRESS PERIOD
 
 SOLVING FOR HEAD 


     6 CALLS TO PCG ROUTINE FOR TIME STEP   1 IN STRESS PERIOD   11
    21 TOTAL ITERATIONS

 NO OUTPUT CONTROL FOR STRESS PERIOD   11   TIME STEP    1



 STREAM LISTING     PERIOD     11   STEP        1

 LAYER ROW COL. STREAM  RCH.  FLOW INTO     FLOW TO   FLOW OUT OF   OVRLND.     DIRECT     STREAM       STREAM     STREAM     STREAM   STREAMBED  STREAMBED
                SEG.NO.  NO.  STRM. RCH.    AQUIFER    STRM. RCH.    RUNOFF     PRECIP       ET          HEAD       DEPTH      WIDTH   CONDCTNC.   GRADIENT

   1   13    1     1     1    1.0000E+05 -2.6328E+03   1.0263E+05  0.000E+00  0.000E+00  0.000E+00  4.84072E+01  1.458E-01  2.000E+01  2.000E+04 -1.316E-01
   1   13    2     1     2    1.0263E+05 -4.4613E+03   1.0709E+05  0.000E+00  0.000E+00  0.000E+00  4.79329E+01  1.488E-01  2.000E+01  2.000E+04 -2.231E-01
   1   14    3     1     3    1.0709E+05 -3.5131E+03   1.1061E+05  0.000E+00  0.000E+00  0.000E+00  4.74590E+01  1.522E-01  2.000E+01  2.000E+04 -1.757E-01
   1   15    4     1     4    1.1061E+05 -3.4146E+03   1.1402E+05  0.000E+00  0.000E+00  0.000E+00  4.69846E+01  1.551E-01  2.000E+01  2.000E+04 -1.707E-01
   1   16    5     1     5    1.1402E+05 -3.7911E+03   1.1781E+05  0.000E+00  0.000E+00  0.000E+00  4.65103E+01  1.581E-01  2.000E+01  2.000E+04 -1.896E-01
   1   16    6     1     6    1.1781E+05 -2.9447E+03   1.2076E+05  0.000E+00  0.000E+00  0.000E+00  4.60358E+01  1.608E-01  2.000E+01  2.000E+04 -1.472E-01
   1   16    7     1     7    1.2076E+05 -2.9588E+03   1.2372E+05  0.000E+00  0.000E+00  0.000E+00  4.55609E+01  1.632E-01  2.000E+01  2.000E+04 -1.479E-01
   1   16    8     1     8    1.2372E+05 -2.9288E+03   1.2665E+05  0.000E+00  0.000E+00  0.000E+00  4.50860E+01  1.655E-01  2.000E+01  2.000E+04 -1.464E-01
   1   16    9     1     9    1.2665E+05 -2.8368E+03   1.2948E+05  0.000E+00  0.000E+00  0.000E+00  4.46110E+01  1.678E-01  2.000E+01  2.000E+04 -1.418E-01
   1   16   10     1    10    1.2948E+05 -2.6817E+03   1.3216E+05  0.000E+00  0.000E+00  0.000E+00  4.41359E+01  1.700E-01  2.000E+01  2.000E+04 -1.341E-01
   1   16   11     1    11    1.3216E+05 -2.4656E+03   1.3463E+05  0.000E+00  0.000E+00  0.000E+00  4.36606E+01  1.720E-01  2.000E+01  2.000E+04 -1.233E-01
   1   16   12     1    12    1.3463E+05 -2.4478E+03   1.3708E+05  0.000E+00  0.000E+00  0.000E+00  4.31852E+01  1.738E-01  2.000E+01  2.000E+04 -1.224E-01
   1   15   13     1    13    1.3708E+05 -1.3080E+03   1.3839E+05  0.000E+00  0.000E+00  0.000E+00  4.27094E+01  1.753E-01  2.000E+01  2.000E+04 -6.540E-02
   1   14   14     1    14    1.3839E+05 -8.3080E+02   1.3922E+05  0.000E+00  0.000E+00  0.000E+00  4.22329E+01  1.761E-01  2.000E+01  2.000E+04 -4.154E-02
   1   13   15     1    15    1.3922E+05 -1.3981E+03   1.4061E+05  0.000E+00  0.000E+00  0.000E+00  4.17565E+01  1.769E-01  2.000E+01  2.000E+04 -6.991E-02
   1   12   16     1    16    1.4061E+05 -3.9565E+03   1.4457E+05  0.000E+00  0.000E+00  0.000E+00  4.12812E+01  1.790E-01  2.000E+01  2.000E+04 -1.978E-01
   1   12   17     1    17    1.4457E+05 -1.9530E+03   1.4652E+05  0.000E+00  0.000E+00  0.000E+00  4.08062E+01  1.812E-01  2.000E+01  2.000E+04 -9.765E-02
   1   12   18     1    18    1.4652E+05 -1.9786E+03   1.4850E+05  0.000E+00  0.000E+00  0.000E+00  4.03304E+01  1.827E-01  2.000E+01  2.000E+04 -9.893E-02
   1   12   19     1    19    1.4850E+05 -3.4441E+03   1.5195E+05  0.000E+00  0.000E+00  0.000E+00  3.98551E+01  1.847E-01  2.000E+01  2.000E+04 -1.722E-01
   1   13   20     1    20    1.5195E+05 -1.0237E+03   1.5297E+05  0.000E+00  0.000E+00  0.000E+00  3.93795E+01  1.863E-01  2.000E+01  2.000E+04 -5.118E-02
   1   14   21     1    21    1.5297E+05 -1.7015E+02   1.5314E+05  0.000E+00  0.000E+00  0.000E+00  3.89026E+01  1.867E-01  2.000E+01  2.000E+04 -8.507E-03
   1   14   22     1    22    1.5314E+05  5.1837E+03   1.4796E+05  0.000E+00  0.000E+00  0.000E+00  3.84235E+01  1.849E-01  2.000E+01  2.000E+04  2.592E-01
   1    9   30     2     1    5.0000E+04 -2.5114E+03   5.2511E+04  0.000E+00  0.000E+00  0.000E+00  4.02426E+01  1.176E-01  2.000E+01  2.000E+04 -1.256E-01
   1    9   29     2     2    5.2511E+04 -2.8449E+03   5.5356E+04  0.000E+00  0.000E+00  0.000E+00  3.99963E+01  1.213E-01  2.000E+01  2.000E+04 -1.422E-01
   1    9   28     2     3    5.5356E+04 -3.2312E+03   5.8587E+04  0.000E+00  0.000E+00  0.000E+00  3.97503E+01  1.253E-01  2.000E+01  2.000E+04 -1.616E-01
   1    9   27     2     4    5.8587E+04 -5.9221E+03   6.4510E+04  0.000E+00  0.000E+00  0.000E+00  3.95063E+01  1.313E-01  2.000E+01  2.000E+04 -2.961E-01
   1   10   26     2     5    6.4510E+04 -3.4346E+03   6.7944E+04  0.000E+00  0.000E+00  0.000E+00  3.92621E+01  1.371E-01  2.000E+01  2.000E+04 -1.717E-01
   1   11   25     2     6    6.7944E+04 -2.2941E+03   7.0238E+04  0.000E+00  0.000E+00  0.000E+00  3.90157E+01  1.407E-01  2.000E+01  2.000E+04 -1.147E-01
   1   12   24     2     7    7.0238E+04 -1.4093E+03   7.1648E+04  0.000E+00  0.000E+00  0.000E+00  3.87679E+01  1.429E-01  2.000E+01  2.000E+04 -7.047E-02
   1   13   23     2     8    7.1648E+04 -7.1715E+02   7.2365E+04  0.000E+00  0.000E+00  0.000E+00  3.85192E+01  1.442E-01  2.000E+01  2.000E+04 -3.586E-02
   1   14   22     2     9    7.2365E+04  2.0808E+03   7.0284E+04  0.000E+00  0.000E+00  0.000E+00  3.82684E+01  1.434E-01  2.000E+01  2.000E+04  1.040E-01
   1   14   22     3     1    2.1824E+05 -8.2979E+03   2.2654E+05  0.000E+00  0.000E+00  0.000E+00  3.77495E+01  1.939E-01  2.000E+01  2.000E+04 -4.149E-01
   1   15   23     3     2    2.2654E+05 -1.8153E+03   2.2835E+05  0.000E+00  0.000E+00  0.000E+00  3.68632E+01  1.965E-01  2.000E+01  2.000E+04 -9.077E-02
   1   15   24     3     3    2.2835E+05 -1.4398E+03   2.2979E+05  0.000E+00  0.000E+00  0.000E+00  3.59752E+01  1.974E-01  2.000E+01  2.000E+04 -7.199E-02
   1   15   25     3     4    2.2979E+05 -1.2650E+03   2.3106E+05  0.000E+00  0.000E+00  0.000E+00  3.50870E+01  1.981E-01  2.000E+01  2.000E+04 -6.325E-02
   1   15   26     3     5    2.3106E+05 -1.6385E+03   2.3270E+05  0.000E+00  0.000E+00  0.000E+00  3.41988E+01  1.988E-01  2.000E+01  2.000E+04 -8.192E-02
   1   16   27     3     6    2.3270E+05 -2.7121E+03   2.3541E+05  0.000E+00  0.000E+00  0.000E+00  3.33110E+01  1.999E-01  2.000E+01  2.000E+04 -1.356E-01
   1   17   28     3     7    2.3541E+05 -3.6389E+03   2.3905E+05  0.000E+00  0.000E+00  0.000E+00  3.24238E+01  2.016E-01  2.000E+01  2.000E+04 -1.819E-01
   1   18   29     3     8    2.3905E+05 -5.4264E+03   2.4447E+05  0.000E+00  0.000E+00  0.000E+00  3.15372E+01  2.039E-01  2.000E+01  2.000E+04 -2.713E-01
   1   18   30     3     9    2.4447E+05 -4.5703E+03   2.4904E+05  0.000E+00  0.000E+00  0.000E+00  3.06508E+01  2.064E-01  2.000E+01  2.000E+04 -2.285E-01



1
  VOLUMETRIC BUDGET FOR ENTIRE MODEL AT END OF TIME STEP    1, STRESS PERIOD  11
  ------------------------------------------------------------------------------

     CUMULATIVE VOLUMES      L**3       RATES FOR THIS TIME STEP      L**3/T
     ------------------                 ------------------------

           IN:                                      IN:
           ---                                      ---
             STORAGE =    27370338.0000               STORAGE =       10168.6221
       CONSTANT HEAD =   111801960.0000         CONSTANT HEAD =      121818.8672
               WELLS =           0.0000                 WELLS =           0.0000
            RECHARGE =    23901600.0000              RECHARGE =           0.0000
      STREAM LEAKAGE =    16459945.0000        STREAM LEAKAGE =        7264.4302

            TOTAL IN =   179533840.0000              TOTAL IN =      139251.9219

          OUT:                                     OUT:
          ----                                     ----
             STORAGE =     5416669.5000               STORAGE =        2638.6760
       CONSTANT HEAD =           0.0000         CONSTANT HEAD =           0.0000
               WELLS =    51114720.0000                 WELLS =       30303.6133
            RECHARGE =           0.0000              RECHARGE =           0.0000
      STREAM LEAKAGE =   123002336.0000        STREAM LEAKAGE =      106308.9766

           TOTAL OUT =   179533728.0000             TOTAL OUT =      139251.2656

            IN - OUT =         112.0000              IN - OUT =           0.6562

 PERCENT DISCREPANCY =           0.00     PERCENT DISCREPANCY =           0.00






         TIME SUMMARY AT END OF TIME STEP    1 IN STRESS PERIOD   11
                    SECONDS     MINUTES      HOURS       DAYS        YEARS
                    -----------------------------------------------------------
   TIME STEP LENGTH 7.86240E+06 1.31040E+05  2184.0      91.000     0.24914    
 STRESS PERIOD TIME 7.86240E+06 1.31040E+05  2184.0      91.000     0.24914    
         TOTAL TIME 8.67456E+07 1.44576E+06  24096.      1004.0      2.7488    
1
1
                            STRESS PERIOD NO.   12, LENGTH =   91.00000    
                            -----------------------------------------------

                              NUMBER OF TIME STEPS =     1

                               MULTIPLIER FOR DELT =     1.500

                            INITIAL TIME STEP SIZE =   91.00000    

 WELL NO.  LAYER   ROW   COL   STRESS RATE         
 --------------------------------------------------
      1      1     12     11      -4035.    
      2      1     16     17       0.000    
      3      1     11     22       0.000    
      4      1     14     25     -0.2942E+05

      4 WELLS

                 RECHARGE =  1.000000E-03

 REUSING STREAM SEGMENT DATA FROM LAST STRESS PERIOD
 
 SOLVING FOR HEAD 


     6 CALLS TO PCG ROUTINE FOR TIME STEP   1 IN STRESS PERIOD   12
    21 TOTAL ITERATIONS

 NO OUTPUT CONTROL FOR STRESS PERIOD   12   TIME STEP    1



 STREAM LISTING     PERIOD     12   STEP        1

 LAYER ROW COL. STREAM  RCH.  FLOW INTO     FLOW TO   FLOW OUT OF   OVRLND.     DIRECT     STREAM       STREAM     STREAM     STREAM   STREAMBED  STREAMBED
                SEG.NO.  NO.  STRM. RCH.    AQUIFER    STRM. RCH.    RUNOFF     PRECIP       ET          HEAD       DEPTH      WIDTH   CONDCTNC.   GRADIENT

   1   13    1     1     1    1.0000E+05 -2.8082E+03   1.0281E+05  0.000E+00  0.000E+00  0.000E+00  4.84072E+01  1.459E-01  2.000E+01  2.000E+04 -1.404E-01
   1   13    2     1     2    1.0281E+05 -4.6815E+03   1.0749E+05  0.000E+00  0.000E+00  0.000E+00  4.79332E+01  1.491E-01  2.000E+01  2.000E+04 -2.341E-01
   1   14    3     1     3    1.0749E+05 -3.7565E+03   1.1125E+05  0.000E+00  0.000E+00  0.000E+00  4.74595E+01  1.526E-01  2.000E+01  2.000E+04 -1.878E-01
   1   15    4     1     4    1.1125E+05 -3.6635E+03   1.1491E+05  0.000E+00  0.000E+00  0.000E+00  4.69853E+01  1.557E-01  2.000E+01  2.000E+04 -1.832E-01
   1   16    5     1     5    1.1491E+05 -4.0333E+03   1.1894E+05  0.000E+00  0.000E+00  0.000E+00  4.65112E+01  1.589E-01  2.000E+01  2.000E+04 -2.017E-01
   1   16    6     1     6    1.1894E+05 -3.1446E+03   1.2209E+05  0.000E+00  0.000E+00  0.000E+00  4.60368E+01  1.618E-01  2.000E+01  2.000E+04 -1.572E-01
   1   16    7     1     7    1.2209E+05 -3.1720E+03   1.2526E+05  0.000E+00  0.000E+00  0.000E+00  4.55620E+01  1.643E-01  2.000E+01  2.000E+04 -1.586E-01
   1   16    8     1     8    1.2526E+05 -3.1623E+03   1.2842E+05  0.000E+00  0.000E+00  0.000E+00  4.50873E+01  1.668E-01  2.000E+01  2.000E+04 -1.581E-01
   1   16    9     1     9    1.2842E+05 -3.1024E+03   1.3152E+05  0.000E+00  0.000E+00  0.000E+00  4.46125E+01  1.693E-01  2.000E+01  2.000E+04 -1.551E-01
   1   16   10     1    10    1.3152E+05 -3.0034E+03   1.3453E+05  0.000E+00  0.000E+00  0.000E+00  4.41376E+01  1.717E-01  2.000E+01  2.000E+04 -1.502E-01
   1   16   11     1    11    1.3453E+05 -2.9071E+03   1.3743E+05  0.000E+00  0.000E+00  0.000E+00  4.36626E+01  1.739E-01  2.000E+01  2.000E+04 -1.454E-01
   1   16   12     1    12    1.3743E+05 -3.7463E+03   1.4118E+05  0.000E+00  0.000E+00  0.000E+00  4.31879E+01  1.765E-01  2.000E+01  2.000E+04 -1.873E-01
   1   15   13     1    13    1.4118E+05 -3.1621E+03   1.4434E+05  0.000E+00  0.000E+00  0.000E+00  4.27132E+01  1.791E-01  2.000E+01  2.000E+04 -1.581E-01
   1   14   14     1    14    1.4434E+05 -3.1487E+03   1.4749E+05  0.000E+00  0.000E+00  0.000E+00  4.22383E+01  1.815E-01  2.000E+01  2.000E+04 -1.574E-01
   1   13   15     1    15    1.4749E+05 -3.5718E+03   1.5106E+05  0.000E+00  0.000E+00  0.000E+00  4.17635E+01  1.840E-01  2.000E+01  2.000E+04 -1.786E-01
   1   12   16     1    16    1.5106E+05 -5.0493E+03   1.5611E+05  0.000E+00  0.000E+00  0.000E+00  4.12894E+01  1.871E-01  2.000E+01  2.000E+04 -2.525E-01
   1   12   17     1    17    1.5611E+05 -3.3081E+03   1.5942E+05  0.000E+00  0.000E+00  0.000E+00  4.08152E+01  1.902E-01  2.000E+01  2.000E+04 -1.654E-01
   1   12   18     1    18    1.5942E+05 -3.2130E+03   1.6263E+05  0.000E+00  0.000E+00  0.000E+00  4.03402E+01  1.925E-01  2.000E+01  2.000E+04 -1.607E-01
   1   12   19     1    19    1.6263E+05 -4.3452E+03   1.6698E+05  0.000E+00  0.000E+00  0.000E+00  3.98657E+01  1.952E-01  2.000E+01  2.000E+04 -2.173E-01
   1   13   20     1    20    1.6698E+05 -2.6693E+03   1.6965E+05  0.000E+00  0.000E+00  0.000E+00  3.93909E+01  1.977E-01  2.000E+01  2.000E+04 -1.335E-01
   1   14   21     1    21    1.6965E+05 -1.8637E+03   1.7151E+05  0.000E+00  0.000E+00  0.000E+00  3.89152E+01  1.993E-01  2.000E+01  2.000E+04 -9.319E-02
   1   14   22     1    22    1.7151E+05  5.4077E+03   1.6610E+05  0.000E+00  0.000E+00  0.000E+00  3.84367E+01  1.980E-01  2.000E+01  2.000E+04  2.704E-01
   1    9   30     2     1    5.0000E+04 -2.5951E+03   5.2595E+04  0.000E+00  0.000E+00  0.000E+00  4.02427E+01  1.177E-01  2.000E+01  2.000E+04 -1.298E-01
   1    9   29     2     2    5.2595E+04 -2.9134E+03   5.5508E+04  0.000E+00  0.000E+00  0.000E+00  3.99964E+01  1.214E-01  2.000E+01  2.000E+04 -1.457E-01
   1    9   28     2     3    5.5508E+04 -3.2789E+03   5.8787E+04  0.000E+00  0.000E+00  0.000E+00  3.97505E+01  1.255E-01  2.000E+01  2.000E+04 -1.639E-01
   1    9   27     2     4    5.8787E+04 -6.0158E+03   6.4803E+04  0.000E+00  0.000E+00  0.000E+00  3.95066E+01  1.316E-01  2.000E+01  2.000E+04 -3.008E-01
   1   10   26     2     5    6.4803E+04 -3.2038E+03   6.8007E+04  0.000E+00  0.000E+00  0.000E+00  3.92624E+01  1.374E-01  2.000E+01  2.000E+04 -1.602E-01
   1   11   25     2     6    6.8007E+04 -1.1214E+03   6.9128E+04  0.000E+00  0.000E+00  0.000E+00  3.90150E+01  1.400E-01  2.000E+01  2.000E+04 -5.607E-02
   1   12   24     2     7    6.9128E+04  8.9758E+02   6.8231E+04  0.000E+00  0.000E+00  0.000E+00  3.87652E+01  1.402E-01  2.000E+01  2.000E+04  4.488E-02
   1   13   23     2     8    6.8231E+04  1.2220E+03   6.7009E+04  0.000E+00  0.000E+00  0.000E+00  3.85139E+01  1.389E-01  2.000E+01  2.000E+04  6.110E-02
   1   14   22     2     9    6.7009E+04  1.9127E+03   6.5096E+04  0.000E+00  0.000E+00  0.000E+00  3.82619E+01  1.369E-01  2.000E+01  2.000E+04  9.564E-02
   1   14   22     3     1    2.3120E+05 -8.2033E+03   2.3940E+05  0.000E+00  0.000E+00  0.000E+00  3.77561E+01  2.006E-01  2.000E+01  2.000E+04 -4.102E-01
   1   15   23     3     2    2.3940E+05 -1.9262E+03   2.4133E+05  0.000E+00  0.000E+00  0.000E+00  3.68698E+01  2.032E-01  2.000E+01  2.000E+04 -9.631E-02
   1   15   24     3     3    2.4133E+05  1.1024E+03   2.4023E+05  0.000E+00  0.000E+00  0.000E+00  3.59811E+01  2.034E-01  2.000E+01  2.000E+04  5.512E-02
   1   15   25     3     4    2.4023E+05  7.3359E+03   2.3289E+05  0.000E+00  0.000E+00  0.000E+00  3.50901E+01  2.012E-01  2.000E+01  2.000E+04  3.668E-01
   1   15   26     3     5    2.3289E+05  1.6419E+03   2.3125E+05  0.000E+00  0.000E+00  0.000E+00  3.41989E+01  1.989E-01  2.000E+01  2.000E+04  8.209E-02
   1   16   27     3     6    2.3125E+05 -2.4723E+03   2.3372E+05  0.000E+00  0.000E+00  0.000E+00  3.33102E+01  1.991E-01  2.000E+01  2.000E+04 -1.236E-01
   1   17   28     3     7    2.3372E+05 -3.7794E+03   2.3750E+05  0.000E+00  0.000E+00  0.000E+00  3.24230E+01  2.007E-01  2.000E+01  2.000E+04 -1.890E-01
   1   18   29     3     8    2.3750E+05 -5.6576E+03   2.4316E+05  0.000E+00  0.000E+00  0.000E+00  3.15365E+01  2.031E-01  2.000E+01  2.000E+04 -2.829E-01
   1   18   30     3     9    2.4316E+05 -4.7077E+03   2.4787E+05  0.000E+00  0.000E+00  0.000E+00  3.06502E+01  2.058E-01  2.000E+01  2.000E+04 -2.354E-01



1
  VOLUMETRIC BUDGET FOR ENTIRE MODEL AT END OF TIME STEP    1, STRESS PERIOD  12
  ------------------------------------------------------------------------------

     CUMULATIVE VOLUMES      L**3       RATES FOR THIS TIME STEP      L**3/T
     ------------------                 ------------------------

           IN:                                      IN:
           ---                                      ---
             STORAGE =    27506016.0000               STORAGE =        1490.9744
       CONSTANT HEAD =   122234176.0000         CONSTANT HEAD =      114639.6875
               WELLS =           0.0000                 WELLS =           0.0000
            RECHARGE =    26413200.0000              RECHARGE =       27600.0000
      STREAM LEAKAGE =    18236286.0000        STREAM LEAKAGE =       19520.2383

            TOTAL IN =   194389680.0000              TOTAL IN =      163250.8906

          OUT:                                     OUT:
          ----                                     ----
             STORAGE =     6546161.5000               STORAGE =       12412.0010
       CONSTANT HEAD =           0.0000         CONSTANT HEAD =           0.0000
               WELLS =    54158796.0000                 WELLS =       33451.3711
            RECHARGE =           0.0000              RECHARGE =           0.0000
      STREAM LEAKAGE =   133684560.0000        STREAM LEAKAGE =      117387.0469

           TOTAL OUT =   194389520.0000             TOTAL OUT =      163250.4219

            IN - OUT =         160.0000              IN - OUT =           0.4688

 PERCENT DISCREPANCY =           0.00     PERCENT DISCREPANCY =           0.00






         TIME SUMMARY AT END OF TIME STEP    1 IN STRESS PERIOD   12
                    SECONDS     MINUTES      HOURS       DAYS        YEARS
                    -----------------------------------------------------------
   TIME STEP LENGTH 7.86240E+06 1.31040E+05  2184.0      91.000     0.24914    
 STRESS PERIOD TIME 7.86240E+06 1.31040E+05  2184.0      91.000     0.24914    
         TOTAL TIME 9.46080E+07 1.57680E+06  26280.      1095.0      2.9979    
1

 Run end date and time (yyyy/mm/dd hh:mm:ss): 2016/09/22 15:50:29
 Elapsed run time:  0.078 Seconds

