                                  MODFLOW-NWT-SWR1 
      U.S. GEOLOGICAL SURVEY MODULAR FINITE-DIFFERENCE GROUNDWATER-FLOW MODEL
                            VERSION 1.1.3, 8/01/2017
                    BASED ON MODFLOW-2005 VERSION 1.11.00 08/08/2013

 LIST FILE: freyberg.list
                         UNIT    2

 OPENING freyberg.dis
 FILE TYPE:DIS   UNIT   11   STATUS:OLD    
 FORMAT:FORMATTED              ACCESS:SEQUENTIAL          

 OPENING freyberg.upw
 FILE TYPE:LPF   UNIT   31   STATUS:OLD    
 FORMAT:FORMATTED              ACCESS:SEQUENTIAL          

 OPENING freyberg.bas
 FILE TYPE:BAS6   UNIT   13   STATUS:OLD    
 FORMAT:FORMATTED              ACCESS:SEQUENTIAL          

 OPENING freyberg.rch
 FILE TYPE:RCH   UNIT   19   STATUS:OLD    
 FORMAT:FORMATTED              ACCESS:SEQUENTIAL          

 OPENING freyberg.wel
 FILE TYPE:WEL   UNIT   20   STATUS:OLD    
 FORMAT:FORMATTED              ACCESS:SEQUENTIAL          

 OPENING freyberg.riv
 FILE TYPE:RIV   UNIT   18   STATUS:OLD    
 FORMAT:FORMATTED              ACCESS:SEQUENTIAL          

 OPENING freyberg.oc
 FILE TYPE:OC   UNIT   14   STATUS:OLD    
 FORMAT:FORMATTED              ACCESS:SEQUENTIAL          

 OPENING freyberg.hds
 FILE TYPE:DATA   UNIT   51   STATUS:REPLACE
 FORMAT:FORMATTED              ACCESS:SEQUENTIAL          

 OPENING freyberg.ddn
 FILE TYPE:DATA(BINARY)   UNIT   52   STATUS:REPLACE
 FORMAT:BINARY                 ACCESS:SEQUENTIAL          

 OPENING freyberg.cbc
 FILE TYPE:DATA(BINARY)   UNIT   53   STATUS:REPLACE
 FORMAT:BINARY                 ACCESS:SEQUENTIAL          

 OPENING freyberg.pcg
 FILE TYPE:PCG   UNIT   32   STATUS:OLD    
 FORMAT:FORMATTED              ACCESS:SEQUENTIAL          

 BAS -- BASIC PACKAGE, VERSION 1.1.3, 8/01/2017 INPUT READ FROM UNIT   13
 
 MODFLOW was compiled using mixed precision
 Precision of REAL variables:           6
 Precision of DOUBLE PRECISION variables:          15

 DISCRETIZATION INPUT DATA READ FROM UNIT   11
 # Discretization file for MODFLOW, generated by Flopy.
    1 LAYERS        40 ROWS        20 COLUMNS
    3 STRESS PERIOD(S) IN SIMULATION
 MODEL TIME UNIT IS DAYS
 MODEL LENGTH UNIT IS METERS
  Confining bed flag for each layer:
   0



                               DELR
 READING ON UNIT   11 WITH FORMAT: (20G15.6)           



                               DELC
 READING ON UNIT   11 WITH FORMAT: (40G15.6)           

 TOP ELEVATION OF LAYER 1 =   35.0000    

 OPENING FILE ON UNIT   99:
 botm.ref                                                                                                                                                                                                



             MODEL LAYER BOTTOM EL. FOR LAYER   1
 READING ON UNIT   99 WITH FORMAT: (10E12.4)           


 STRESS PERIOD     LENGTH       TIME STEPS     MULTIPLIER FOR DELT    SS FLAG
 ----------------------------------------------------------------------------
        1         1.000000          1                    1.000         SS
        2         1825.000          1                    1.000         TR
        3         1.000000          1                    1.000         SS

 COMBINED STEADY-STATE AND TRANSIENT SIMULATION



 
 # Basic package file for MODFLOW, generated by Flopy.                           
 THE FREE FORMAT OPTION HAS BEEN SELECTED

 OPENING FILE ON UNIT   99:
 ibound.ref                                                                                                                                                                                              



                     BOUNDARY ARRAY FOR LAYER   1
 READING ON UNIT   99 WITH FORMAT: (25I3)              

 AQUIFER HEAD WILL BE SET TO  -999.99     AT ALL NO-FLOW NODES (IBOUND=0).

 OPENING FILE ON UNIT   99:
 strt.ref                                                                                                                                                                                                



                       INITIAL HEAD FOR LAYER   1
 READING ON UNIT   99 WITH FORMAT: (10E12.4)           
 # Output control package file for MODFLOW, generated by Flopy.

 OUTPUT CONTROL IS SPECIFIED ONLY AT TIME STEPS FOR WHICH OUTPUT IS DESIRED
 HEADS WILL BE SAVED WITH FORMAT: (20E15.6)           
 COMPACT CELL-BY-CELL BUDGET FILES WILL BE WRITTEN
 AUXILIARY DATA WILL BE SAVED IN CELL-BY-CELL BUDGET FILES
 HEAD PRINT FORMAT CODE IS   0    DRAWDOWN PRINT FORMAT CODE IS   0
 HEADS WILL BE SAVED ON UNIT   51    DRAWDOWNS WILL BE SAVED ON UNIT   52

 LPF -- LAYER-PROPERTY FLOW PACKAGE, VERSION 7, 5/2/2005
         INPUT READ FROM UNIT   31
 # UPW for MODFLOW-NWT, generated by Flopy.
 CELL-BY-CELL FLOWS WILL BE SAVED ON UNIT   53
 HEAD AT CELLS THAT CONVERT TO DRY= -1.00000E+30
 No named parameters

   LAYER FLAGS:
 LAYER       LAYTYP        LAYAVG         CHANI        LAYVKA        LAYWET
 ---------------------------------------------------------------------------
    1             1             0     1.000E+00             0             0

   INTERPRETATION OF LAYER FLAGS:
                        INTERBLOCK     HORIZONTAL    DATA IN
         LAYER TYPE   TRANSMISSIVITY   ANISOTROPY   ARRAY VKA   WETTABILITY
 LAYER      (LAYTYP)      (LAYAVG)       (CHANI)      (LAYVKA)      (LAYWET)
 ---------------------------------------------------------------------------
    1   CONVERTIBLE      HARMONIC     1.000E+00    VERTICAL K  NON-WETTABLE

 WETTING CAPABILITY IS NOT ACTIVE IN ANY LAYER

 OPENING FILE ON UNIT   99:
 hk_Layer_1.ref                                                                                                                                                                                          



              HYD. COND. ALONG ROWS FOR LAYER   1
 READING ON UNIT   99 WITH FORMAT: (20G15.6)           

      VERTICAL HYD. COND. =   1.00000     FOR LAYER   1

 OPENING FILE ON UNIT   99:
 ss_Layer_1.ref                                                                                                                                                                                          



                   SPECIFIC STORAGE FOR LAYER   1
 READING ON UNIT   99 WITH FORMAT: (20G15.6)           

           SPECIFIC YIELD =  9.565625E-02 FOR LAYER   1

 WEL -- WELL PACKAGE FOR NWT VERSION 1.1.3,  8/01/2017 INPUT READ FROM UNIT   20
 # Well file for MODFLOW, generated by Flopy.
 No named parameters
 MAXIMUM OF      6 ACTIVE WELLS AT ONE TIME
 No named parameters


     0 Well parameters

 RIV -- RIVER PACKAGE, VERSION 7, 5/2/2005 INPUT READ FROM UNIT   18
 # RIV for MODFLOW, generated by Flopy.
 No named parameters
 MAXIMUM OF     40 ACTIVE RIVER REACHES AT ONE TIME


     0 River parameters

 RCH -- RECHARGE PACKAGE, VERSION 7, 5/2/2005 INPUT READ FROM UNIT   19
 # RCH for MODFLOW, generated by Flopy.
 No named parameters
 OPTION 3 -- RECHARGE TO HIGHEST ACTIVE NODE IN EACH VERTICAL COLUMN


     0 Recharge parameters

 PCG -- CONJUGATE-GRADIENT SOLUTION PACKAGE, VERSION 7, 5/2/2005
 MAXIMUM OF    100 CALLS OF SOLUTION ROUTINE
 MAXIMUM OF     25 INTERNAL ITERATIONS PER CALL TO SOLUTION ROUTINE
 MATRIX PRECONDITIONING TYPE :    1
 IHCOFADD option -- When an active cell is surrounded by dry cells, convert
 the cell to dry only if storage and head-dependent boundary flow are 0.



                                    SOLUTION BY THE CONJUGATE-GRADIENT METHOD
                                   -------------------------------------------
                    MAXIMUM NUMBER OF CALLS TO PCG ROUTINE =      100
                        MAXIMUM ITERATIONS PER CALL TO PCG =       25
                               MATRIX PRECONDITIONING TYPE =        1
        RELAXATION FACTOR (ONLY USED WITH PRECOND. TYPE 1) =    0.10000E+01
 PARAMETER OF POLYNOMIAL PRECOND. = 2 (2) OR IS CALCULATED :        2
                         HEAD CHANGE CRITERION FOR CLOSURE =    0.10000E-04
                     RESIDUAL CHANGE CRITERION FOR CLOSURE =    0.10000E+00
            PCG HEAD AND RESIDUAL CHANGE PRINTOUT INTERVAL =        5
     PRINTING FROM SOLVER IS LIMITED(1) OR SUPPRESSED (>1) =        0
                            STEADY-STATE DAMPING PARAMETER =    0.70000E+00
                               TRANSIENT DAMPING PARAMETER =    0.70000E+00
1
                            STRESS PERIOD NO.    1, LENGTH =   1.000000    
                            -----------------------------------------------

                              NUMBER OF TIME STEPS =     1

                               MULTIPLIER FOR DELT =     1.000

                            INITIAL TIME STEP SIZE =   1.000000    

 WELL NO.  LAYER   ROW   COL   STRESS RATE         
 --------------------------------------------------
      1      1      9     16       100.0    
      2      1     11     13       100.0    
      3      1     20     14       100.0    
      4      1     26     10       100.0    
      5      1     29      6       100.0    
      6      1     34     12       100.0    

      6 WELLS

 REACH NO.  LAYER   ROW   COL     STAGE      CONDUCTANCE     BOTTOM EL.         
 -------------------------------------------------------------------------------
      1      1      1     15       20.10          0.1235E+05       20.00    
      2      1      2     15       19.87           1968.           19.75    
      3      1      3     15       19.65           3245.           19.50    
      4      1      4     15       19.42           3617.           19.25    
      5      1      5     15       19.19           8417.           19.00    
      6      1      6     15       18.97           5785.           18.75    
      7      1      7     15       18.74           755.8           18.50    
      8      1      8     15       18.51           1932.           18.25    
      9      1      9     15       18.28           3607.           18.00    
     10      1     10     15       19.06           8422.           17.75    
     11      1     11     15       17.83           5634.           17.50    
     12      1     12     15       17.60           7633.           17.25    
     13      1     13     15       17.38          0.1545E+05       17.00    
     14      1     14     15       17.15           2018.           16.75    
     15      1     15     15       16.92           3022.           16.50    
     16      1     16     15       16.70          0.4500E+05       16.25    
     17      1     17     15       16.47           4112.           16.00    
     18      1     18     15       16.24          0.2144E+05       15.75    
     19      1     19     15       16.02           1131.           15.50    
     20      1     20     15       15.79           2600.           15.25    
     21      1     21     15       15.56           4005.           15.00    
     22      1     22     15       15.33           2091.           14.75    
     23      1     23     15       15.11           4477.           14.50    
     24      1     24     15       14.88           2687.           14.25    
     25      1     25     15       14.65           8186.           14.00    
     26      1     26     15       14.43           7105.           13.75    
     27      1     27     15       14.20           3614.           13.50    
     28      1     28     15       13.97           2304.           13.25    
     29      1     29     15       13.75           5451.           13.00    
     30      1     30     15       13.52           3770.           12.75    
     31      1     31     15       13.29           2194.           12.50    
     32      1     32     15       13.07          0.1355E+05       12.25    
     33      1     33     15       12.84           7222.           12.00    
     34      1     34     15       12.61           2681.           11.75    
     35      1     35     15       12.38           1586.           11.50    
     36      1     36     15       12.16           4182.           11.25    
     37      1     37     15       11.93          0.1084E+05       11.00    
     38      1     38     15       11.70          0.1250E+05       10.75    
     39      1     39     15       11.48           1788.           10.50    
     40      1     40     15       11.25           6370.           10.25    

     40 RIVER REACHES

 OPENING FILE ON UNIT   99:
 rech_0.ref                                                                                                                                                                                              



                           RECHARGE
 READING ON UNIT   99 WITH FORMAT: (20G15.6)           
 
 SOLVING FOR HEAD 


    15 CALLS TO PCG ROUTINE FOR TIME STEP     1 IN STRESS PERIOD    1
   185 TOTAL ITERATIONS

 MAXIMUM HEAD CHANGE FOR EACH ITERATION (1 INDICATES THE FIRST INNER ITERATION):

    HEAD CHANGE    HEAD CHANGE    HEAD CHANGE    HEAD CHANGE    HEAD CHANGE 
   LAYER,ROW,COL  LAYER,ROW,COL  LAYER,ROW,COL  LAYER,ROW,COL  LAYER,ROW,COL
 ---------------------------------------------------------------------------
  1  -54.65      0  -34.06      0   21.89      0   6.327      0  -3.619    
   (  1, 39, 11)  (  1,  9,  4)  (  1,  9,  4)  (  1,  8,  5)  (  1, 32,  1)
  0  -1.376      0 -0.5691      0 -0.3473      0  0.1356      0 -0.1015    
   (  1, 28,  5)  (  1, 24,  8)  (  1, 37,  5)  (  1,  7,  3)  (  1,  8,  4)
  0  0.5467E-01  0  0.1421E-01  0 -0.1544E-01  0  0.9344E-02  0  0.3331E-02
   (  1, 10,  1)  (  1, 32,  1)  (  1,  9,  4)  (  1,  9,  3)  (  1, 35,  4)
  0  0.1115E-02  0 -0.3434E-03  0 -0.1585E-03  0 -0.4787E-04  0 -0.3915E-04
   (  1, 27,  3)  (  1,  7,  3)  (  1, 14,  1)  (  1, 15, 11)  (  1,  9,  4)
  0  0.3019E-04  0 -0.1792E-04  0  0.6346E-05  1  -14.50      0  -13.24    
   (  1,  9,  4)  (  1,  9,  4)  (  1, 13,  2)  (  1, 39, 11)  (  1,  9,  4)
  0  -6.093      0   2.317      0  -1.362      0 -0.4947      0 -0.2200    
   (  1,  8,  5)  (  1, 39, 11)  (  1, 32,  1)  (  1, 28,  5)  (  1, 14,  1)
  0 -0.1135      0  0.4432E-01  0 -0.2357E-01  0  0.1699E-01  0 -0.9034E-02
   (  1,  7,  3)  (  1,  5,  1)  (  1, 11,  4)  (  1, 10,  1)  (  1,  9,  4)
  0  0.4007E-02  0  0.2196E-02  0  0.8358E-03  0  0.3401E-03  0 -0.1078E-03
   (  1,  9,  3)  (  1, 29,  3)  (  1, 35,  4)  (  1, 27,  3)  (  1,  7,  3)
  0 -0.4621E-04  0  0.1672E-04  0 -0.2111E-04  0 -0.1068E-04  0  0.3419E-05
   (  1, 14,  1)  (  1, 33,  2)  (  1,  9,  4)  (  1,  8,  5)  (  1,  4,  2)
  1   10.14      0  -7.434      0  -3.765      0 -0.8533      0 -0.6496    
   (  1,  9,  4)  (  1,  9,  4)  (  1,  8,  5)  (  1,  3,  6)  (  1, 32,  1)
  0 -0.1967      0 -0.1037      0 -0.5213E-01  0 -0.1500E-01  0 -0.8389E-02
   (  1, 28,  4)  (  1, 20,  4)  (  1,  8,  5)  (  1, 27,  7)  (  1, 32,  6)
  0  0.3509E-02  0 -0.2799E-02  0  0.1773E-02  0  0.7675E-03  0  0.2077E-03
   (  1,  9,  1)  (  1,  9,  4)  (  1,  9,  4)  (  1, 30,  2)  (  1, 24,  7)
  0  0.1155E-03  0  0.4243E-04  0 -0.1998E-04  0  0.7519E-05  1   2.035    
   (  1,  4,  6)  (  1, 19,  4)  (  1, 15,  2)  (  1, 15,  3)  (  1,  8,  5)
  0  -1.614      0 -0.7412      0 -0.3507      0 -0.2487      0 -0.6927E-01
   (  1,  8,  5)  (  1,  9,  4)  (  1, 30,  1)  (  1, 32,  1)  (  1, 29,  5)
  0 -0.3009E-01  0 -0.1480E-01  0  0.5466E-02  0 -0.3663E-02  0  0.1479E-02
   (  1,  8,  5)  (  1,  8,  4)  (  1,  6,  1)  (  1, 32,  6)  (  1, 10,  1)
  0 -0.9702E-03  0  0.5178E-03  0  0.2825E-03  0 -0.1056E-03  0  0.4745E-04
   (  1, 31,  3)  (  1,  9,  4)  (  1,  6,  5)  (  1,  3,  5)  (  1,  4,  6)
  0  0.1588E-04  0  0.8021E-05  1  0.5165      0  0.5255      0 -0.2087    
   (  1, 39, 14)  (  1, 23,  9)  (  1,  8,  6)  (  1,  9,  4)  (  1, 26,  7)
  0 -0.1525      0 -0.6408E-01  0 -0.2369E-01  0 -0.1538E-01  0 -0.6989E-02
   (  1, 32,  1)  (  1, 32,  1)  (  1, 20,  4)  (  1, 30,  5)  (  1,  8,  4)
  0  0.3738E-02  0 -0.1671E-02  0  0.7233E-03  0 -0.3029E-03  0  0.2171E-03
   (  1,  7,  3)  (  1, 14,  4)  (  1, 10,  1)  (  1, 31,  3)  (  1,  9,  4)
  0  0.1115E-03  0 -0.4430E-04  0  0.1617E-04  0 -0.6623E-05  1 -0.1960    
   (  1,  5,  5)  (  1,  4,  2)  (  1,  4,  6)  (  1,  9,  1)  (  1,  9,  4)
  0  0.2238      0  0.8090E-01  0 -0.6640E-01  0 -0.2833E-01  0 -0.7924E-02
   (  1,  9,  4)  (  1,  8,  5)  (  1,  8,  4)  (  1, 32,  1)  (  1, 20,  4)
  0 -0.5446E-02  0 -0.1910E-02  0 -0.8171E-03  0  0.3320E-03  0  0.1936E-03
   (  1, 30,  5)  (  1, 37,  5)  (  1, 28,  6)  (  1,  7,  3)  (  1, 11,  1)
  0 -0.8557E-04  0  0.7705E-04  0  0.3995E-04  0 -0.1534E-04  0  0.5694E-05
   (  1, 32,  6)  (  1,  9,  4)  (  1,  6,  5)  (  1,  4,  2)  (  1,  3,  4)
  1 -0.6033E-01  0  0.6954E-01  0  0.3531E-01  0 -0.2397E-01  0 -0.1053E-01
   (  1,  9,  4)  (  1,  9,  4)  (  1,  8,  5)  (  1,  8,  5)  (  1, 32,  1)
  0 -0.2569E-02  0 -0.1540E-02  0 -0.5523E-03  0 -0.2595E-03  0 -0.1065E-03
   (  1, 20,  4)  (  1, 30,  5)  (  1, 37,  5)  (  1, 28,  6)  (  1, 35,  6)
  0  0.7151E-04  0 -0.2236E-04  0 -0.2080E-04  0  0.1423E-04  0 -0.4438E-05
   (  1, 11,  1)  (  1, 33,  7)  (  1,  9,  4)  (  1,  9,  4)  (  1,  4,  2)
  1  0.1559E-01  0  0.1473E-01  0 -0.7674E-02  0 -0.9192E-02  0 -0.3385E-02
   (  1, 22,  9)  (  1,  8,  5)  (  1,  8,  5)  (  1,  9,  4)  (  1, 32,  1)
  0 -0.7807E-03  0 -0.2715E-03  0 -0.1246E-03  0 -0.5841E-04  0 -0.2828E-04
   (  1, 21,  4)  (  1, 32,  5)  (  1, 37,  5)  (  1, 30,  6)  (  1, 35,  4)
  0  0.2228E-04  0  0.6983E-05  1  0.4760E-02  0  0.4096E-02  0  0.4060E-02
   (  1, 12,  1)  (  1, 32,  1)  (  1, 22, 10)  (  1,  8,  5)  (  1,  9,  4)
  0 -0.2027E-02  0 -0.9666E-03  0 -0.2437E-03  0 -0.1458E-03  0  0.4409E-04
   (  1,  9,  4)  (  1, 32,  1)  (  1, 30,  6)  (  1,  8,  5)  (  1, 14,  1)
  0  0.1930E-04  0 -0.1082E-04  0  0.4104E-05  1  0.1488E-02  0 -0.1948E-02
   (  1, 29,  2)  (  1, 35,  6)  (  1,  2,  5)  (  1,  9,  3)  (  1,  9,  4)
  0 -0.9620E-03  0 -0.4133E-03  0 -0.2537E-03  0  0.6269E-04  0 -0.4737E-04
   (  1, 22,  9)  (  1, 27,  3)  (  1, 32,  1)  (  1,  9,  4)  (  1,  8,  5)
  0  0.1157E-04  0 -0.5525E-05  1  0.6879E-03  0 -0.7140E-03  0 -0.2884E-03
   (  1,  8,  5)  (  1, 12, 10)  (  1,  9,  4)  (  1,  9,  4)  (  1, 22, 10)
  0 -0.1141E-03  0 -0.6957E-04  0 -0.2136E-04  0  0.7365E-05  1  0.2238E-03
   (  1, 27,  3)  (  1, 32,  1)  (  1, 32,  1)  (  1,  9,  4)  (  1,  9,  4)
  0 -0.2176E-03  0 -0.8557E-04  0  0.4880E-04  0 -0.1918E-04  0 -0.6159E-05
   (  1,  9,  4)  (  1,  8,  5)  (  1,  8,  5)  (  1,  9,  4)  (  1, 30,  6)
  1  0.8443E-04  0 -0.7144E-04  0 -0.4456E-04  0  0.1868E-04  0 -0.4775E-05
   (  1,  9,  4)  (  1,  9,  4)  (  1,  8,  5)  (  1,  8,  5)  (  1, 27,  8)
  1  0.2254E-04  0 -0.2393E-04  0 -0.1320E-04  0  0.5730E-05  1  0.6347E-05
   (  1,  9,  4)  (  1,  9,  4)  (  1,  8,  5)  (  1,  8,  5)  (  1, 17, 11)

 MAXIMUM RESIDUAL FOR EACH ITERATION (1 INDICATES THE FIRST INNER ITERATION):

    RESIDUAL       RESIDUAL       RESIDUAL       RESIDUAL       RESIDUAL    
   LAYER,ROW,COL  LAYER,ROW,COL  LAYER,ROW,COL  LAYER,ROW,COL  LAYER,ROW,COL
 ---------------------------------------------------------------------------
  1  0.1400E+05  0   5863.      0   2915.      0   1054.      0  -559.0    
   (  1, 16, 15)  (  1, 16, 15)  (  1, 16, 15)  (  1, 16, 15)  (  1, 39, 15)
  0  -406.6      0  -282.3      0  -156.2      0  -87.54      0  -43.63    
   (  1, 39, 15)  (  1, 39, 15)  (  1, 39, 15)  (  1, 39, 15)  (  1, 39, 15)
  0  -18.57      0  -7.955      0  -5.933      0   2.415      0  0.9264    
   (  1, 39, 15)  (  1, 39, 15)  (  1, 39, 15)  (  1, 16, 15)  (  1, 16, 15)
  0  0.3533      0  0.1435      0  0.6300E-01  0 -0.3308E-01  0 -0.1673E-01
   (  1, 16, 15)  (  1, 16, 15)  (  1, 16, 15)  (  1, 38, 15)  (  1, 38, 15)
  0 -0.1009E-01  0 -0.6476E-02  0 -0.2674E-02  1   2941.      0   1656.    
   (  1, 38, 15)  (  1, 38, 15)  (  1, 38, 15)  (  1, 16, 15)  (  1, 16, 15)
  0   737.9      0   246.2      0  -128.0      0  -93.27      0  -64.18    
   (  1, 16, 15)  (  1, 16, 15)  (  1, 39, 15)  (  1, 39, 15)  (  1, 39, 15)
  0  -37.93      0  -24.14      0  -12.46      0  -5.695      0  -4.391    
   (  1, 39, 15)  (  1, 39, 15)  (  1, 39, 15)  (  1, 39, 15)  (  1, 39, 15)
  0  -1.945      0 -0.7373      0 -0.2616      0  0.8644E-01  0  0.3380E-01
   (  1, 39, 15)  (  1, 39, 15)  (  1, 39, 15)  (  1, 16, 15)  (  1, 16, 15)
  0  0.1409E-01  0 -0.6959E-02  0 -0.5434E-02  0 -0.3090E-02  0 -0.1393E-02
   (  1, 16, 15)  (  1, 38, 15)  (  1, 38, 15)  (  1, 38, 15)  (  1, 38, 15)
  1   1459.      0   617.4      0   257.5      0   92.46      0   35.38    
   (  1, 16, 15)  (  1, 16, 15)  (  1, 16, 15)  (  1, 16, 15)  (  1, 16, 15)
  0  -22.44      0  -14.78      0  -9.003      0  -5.749      0  -3.511    
   (  1, 39, 15)  (  1, 39, 15)  (  1, 39, 15)  (  1, 39, 15)  (  1, 39, 15)
  0  -1.632      0  -1.180      0 -0.6440      0 -0.2871      0 -0.1195    
   (  1, 39, 15)  (  1, 39, 15)  (  1, 39, 15)  (  1, 39, 15)  (  1, 39, 15)
  0 -0.3708E-01  0 -0.1116E-01  0  0.4476E-02  0  0.1758E-02  1   454.9    
   (  1, 39, 15)  (  1, 39, 15)  (  1, 16, 15)  (  1, 16, 15)  (  1, 16, 15)
  0   157.0      0   101.9      0   36.93      0   13.63      0   6.844    
   (  1, 16, 15)  (  1, 16, 15)  (  1, 16, 15)  (  1, 16, 15)  (  1, 16, 15)
  0  -4.055      0  -2.642      0  -1.800      0  -1.125      0 -0.5533    
   (  1, 39, 15)  (  1, 39, 15)  (  1, 39, 15)  (  1, 39, 15)  (  1, 39, 15)
  0 -0.2755      0 -0.2243      0 -0.1166      0 -0.5453E-01  0 -0.2107E-01
   (  1, 39, 15)  (  1, 39, 15)  (  1, 39, 15)  (  1, 39, 15)  (  1, 39, 15)
  0 -0.8041E-02  0 -0.2876E-02  1   225.8      0   117.3      0   41.03    
   (  1, 39, 15)  (  1, 39, 15)  (  1, 16, 15)  (  1, 16, 15)  (  1, 16, 15)
  0   12.81      0   5.126      0   2.718      0   1.451      0 -0.7731    
   (  1, 16, 15)  (  1, 16, 15)  (  1, 16, 15)  (  1, 16, 15)  (  1, 39, 15)
  0 -0.5279      0 -0.3471      0 -0.1872      0 -0.1031      0 -0.8426E-01
   (  1, 39, 15)  (  1, 39, 15)  (  1, 39, 15)  (  1, 39, 15)  (  1, 39, 15)
  0 -0.4003E-01  0 -0.1958E-01  0 -0.8545E-02  0 -0.3426E-02  1   96.44    
   (  1, 39, 15)  (  1, 39, 15)  (  1, 39, 15)  (  1, 39, 15)  (  1, 16, 15)
  0   50.29      0   17.58      0   5.073      0   1.899      0   1.037    
   (  1, 16, 15)  (  1, 16, 15)  (  1, 16, 15)  (  1, 16, 15)  (  1, 16, 15)
  0  0.5129      0  0.2547      0 -0.1647      0 -0.1050      0 -0.5984E-01
   (  1, 16, 15)  (  1, 16, 15)  (  1, 39, 15)  (  1, 39, 15)  (  1, 39, 15)
  0 -0.3250E-01  0 -0.2355E-01  0 -0.1256E-01  0 -0.6060E-02  0 -0.2697E-02
   (  1, 39, 15)  (  1, 39, 15)  (  1, 39, 15)  (  1, 39, 15)  (  1, 39, 15)
  1   31.05      0   17.99      0   6.986      0   1.875      0  0.6265    
   (  1, 16, 15)  (  1, 16, 15)  (  1, 16, 15)  (  1, 16, 15)  (  1, 16, 15)
  0  0.3289      0  0.1716      0  0.8936E-01  0 -0.5229E-01  0 -0.3127E-01
   (  1, 16, 15)  (  1, 16, 15)  (  1, 16, 15)  (  1, 39, 15)  (  1, 39, 15)
  0 -0.1798E-01  0 -0.1064E-01  0 -0.8759E-02  0 -0.3838E-02  0 -0.1752E-02
   (  1, 39, 15)  (  1, 39, 15)  (  1, 39, 15)  (  1, 39, 15)  (  1, 39, 15)
  1   9.871      0   3.504      0   1.893      0  0.6400      0  0.1987    
   (  1, 16, 15)  (  1, 16, 15)  (  1, 16, 15)  (  1, 16, 15)  (  1, 16, 15)
  0  0.8713E-01  0  0.5022E-01  0  0.2364E-01  0  0.1442E-01  0 -0.9227E-02
   (  1, 16, 15)  (  1, 16, 15)  (  1, 16, 15)  (  1, 16, 15)  (  1, 39, 15)
  0 -0.5121E-02  0 -0.2952E-02  1   3.688      0   2.342      0  0.7606    
   (  1, 39, 15)  (  1, 39, 15)  (  1, 16, 15)  (  1, 16, 15)  (  1, 16, 15)
  0  0.2100      0  0.6534E-01  0  0.2970E-01  0  0.1761E-01  0  0.8150E-02
   (  1, 16, 15)  (  1, 16, 15)  (  1, 16, 15)  (  1, 16, 15)  (  1, 16, 15)
  0  0.4821E-02  0 -0.2768E-02  0 -0.1475E-02  1   1.427      0  0.8225    
   (  1, 16, 15)  (  1, 39, 15)  (  1, 39, 15)  (  1, 16, 15)  (  1, 16, 15)
  0  0.2318      0  0.6771E-01  0  0.2147E-01  0  0.9307E-02  0  0.5473E-02
   (  1, 16, 15)  (  1, 16, 15)  (  1, 16, 15)  (  1, 16, 15)  (  1, 16, 15)
  0  0.2472E-02  0  0.1126E-02  1  0.5022      0  0.2731      0  0.7656E-01
   (  1, 16, 15)  (  1, 16, 15)  (  1, 16, 15)  (  1, 16, 15)  (  1, 16, 15)
  0  0.2289E-01  0  0.6777E-02  0  0.2874E-02  0  0.1583E-02  1  0.1558    
   (  1, 16, 15)  (  1, 16, 15)  (  1, 16, 15)  (  1, 16, 15)  (  1, 16, 15)
  0  0.8880E-01  0  0.2650E-01  0  0.7253E-02  0  0.1991E-02  0  0.8673E-03
   (  1, 16, 15)  (  1, 16, 15)  (  1, 16, 15)  (  1, 16, 15)  (  1, 16, 15)
  1  0.4812E-01  0  0.2935E-01  0  0.1249E-01  0  0.1881E-02  0  0.5405E-03
   (  1, 16, 15)  (  1, 16, 15)  (  1, 16, 15)  (  1, 16, 15)  (  1, 16, 15)
  1  0.1552E-01  0  0.8910E-02  0  0.4623E-02  0  0.6759E-03  1  0.8123E-02
   (  1, 16, 15)  (  1, 16, 15)  (  1, 16, 15)  (  1, 16, 15)  (  1, 16, 15)



 OUTPUT CONTROL FOR STRESS PERIOD    1   TIME STEP    1
    SAVE HEAD FOR ALL LAYERS
    SAVE BUDGET
 UBDSV2 SAVING "   CONSTANT HEAD" ON UNIT  53 AT TIME STEP     1, STRESS PERIOD   1
 UBDSV1 SAVING "FLOW RIGHT FACE " ON UNIT  53 AT TIME STEP     1, STRESS PERIOD   1
 UBDSV1 SAVING "FLOW FRONT FACE " ON UNIT  53 AT TIME STEP     1, STRESS PERIOD   1

 HEAD WILL BE SAVED ON UNIT   51 AT END OF TIME STEP    1, STRESS PERIOD    1
1
  VOLUMETRIC BUDGET FOR ENTIRE MODEL AT END OF TIME STEP    1, STRESS PERIOD   1
  ------------------------------------------------------------------------------

     CUMULATIVE VOLUMES      L**3       RATES FOR THIS TIME STEP      L**3/T
     ------------------                 ------------------------

           IN:                                      IN:
           ---                                      ---
             STORAGE =           0.0000               STORAGE =           0.0000
       CONSTANT HEAD =           0.0000         CONSTANT HEAD =           0.0000
               WELLS =         600.0000                 WELLS =         600.0000
       RIVER LEAKAGE =         229.0738         RIVER LEAKAGE =         229.0738
            RECHARGE =        6316.3638              RECHARGE =        6316.3638

            TOTAL IN =        7145.4375              TOTAL IN =        7145.4375

          OUT:                                     OUT:
          ----                                     ----
             STORAGE =           0.0000               STORAGE =           0.0000
       CONSTANT HEAD =         444.1249         CONSTANT HEAD =         444.1249
               WELLS =           0.0000                 WELLS =           0.0000
       RIVER LEAKAGE =        6701.4697         RIVER LEAKAGE =        6701.4697
            RECHARGE =           0.0000              RECHARGE =           0.0000

           TOTAL OUT =        7145.5947             TOTAL OUT =        7145.5947

            IN - OUT =          -0.1572              IN - OUT =          -0.1572

 PERCENT DISCREPANCY =          -0.00     PERCENT DISCREPANCY =          -0.00






         TIME SUMMARY AT END OF TIME STEP    1 IN STRESS PERIOD    1
                    SECONDS     MINUTES      HOURS       DAYS        YEARS
                    -----------------------------------------------------------
   TIME STEP LENGTH  86400.      1440.0      24.000      1.0000     2.73785E-03
 STRESS PERIOD TIME  86400.      1440.0      24.000      1.0000     2.73785E-03
         TOTAL TIME  86400.      1440.0      24.000      1.0000     2.73785E-03
1
1
                            STRESS PERIOD NO.    2, LENGTH =   1825.000    
                            -----------------------------------------------

                              NUMBER OF TIME STEPS =     1

                               MULTIPLIER FOR DELT =     1.000

                            INITIAL TIME STEP SIZE =   1825.000    

 WELL NO.  LAYER   ROW   COL   STRESS RATE         
 --------------------------------------------------
      1      1      9     16       100.0    
      2      1     11     13       100.0    
      3      1     20     14       100.0    
      4      1     26     10       100.0    
      5      1     29      6       100.0    
      6      1     34     12       100.0    

      6 WELLS

 REUSING NON-PARAMETER RIVER REACHES FROM LAST STRESS PERIOD

     40 RIVER REACHES

 OPENING FILE ON UNIT   99:
 rech_1.ref                                                                                                                                                                                              



                           RECHARGE
 READING ON UNIT   99 WITH FORMAT: (20G15.6)           
 
 SOLVING FOR HEAD 


    10 CALLS TO PCG ROUTINE FOR TIME STEP     1 IN STRESS PERIOD    2
    63 TOTAL ITERATIONS

 MAXIMUM HEAD CHANGE FOR EACH ITERATION (1 INDICATES THE FIRST INNER ITERATION):

    HEAD CHANGE    HEAD CHANGE    HEAD CHANGE    HEAD CHANGE    HEAD CHANGE 
   LAYER,ROW,COL  LAYER,ROW,COL  LAYER,ROW,COL  LAYER,ROW,COL  LAYER,ROW,COL
 ---------------------------------------------------------------------------
  1 -0.7536      0 -0.1281      0 -0.4219E-01  0 -0.1492E-01  0 -0.4320E-02
   (  1,  9,  4)  (  1,  1, 12)  (  1,  2,  5)  (  1,  2,  1)  (  1,  4,  1)
  0  0.1633E-02  0  0.5601E-03  0 -0.2236E-03  0 -0.7553E-04  0  0.2586E-04
   (  1,  9,  4)  (  1,  8,  5)  (  1,  8,  5)  (  1,  8,  1)  (  1, 32,  1)
  0 -0.6128E-05  1 -0.1667      0 -0.3759E-01  0 -0.1641E-01  0 -0.4433E-02
   (  1,  9,  4)  (  1,  3,  7)  (  1,  1, 13)  (  1,  2,  6)  (  1,  8,  5)
  0 -0.2568E-02  0 -0.6625E-03  0  0.1383E-03  0 -0.5185E-04  0  0.1830E-04
   (  1,  9,  4)  (  1,  8,  5)  (  1, 34,  3)  (  1,  4,  2)  (  1, 29,  4)
  0  0.6562E-05  1 -0.4602E-01  0 -0.1272E-01  0 -0.5430E-02  0  0.1918E-02
   (  1, 32,  1)  (  1, 22,  9)  (  1,  8,  5)  (  1,  9,  3)  (  1,  9,  4)
  0 -0.6032E-03  0 -0.2066E-03  0 -0.4793E-04  0  0.1416E-04  0  0.5390E-05
   (  1,  9,  4)  (  1,  8,  5)  (  1,  2,  4)  (  1, 27,  6)  (  1, 29,  4)
  1 -0.1282E-01  0 -0.4139E-02  0 -0.2148E-02  0  0.6385E-03  0  0.1438E-03
   (  1, 22, 10)  (  1,  8,  5)  (  1,  9,  4)  (  1,  9,  4)  (  1,  8,  5)
  0 -0.5725E-04  0 -0.1462E-04  0  0.4180E-05  1 -0.3608E-02  0 -0.1184E-02
   (  1,  8,  5)  (  1,  2,  4)  (  1, 27,  6)  (  1,  4, 10)  (  1,  8,  5)
  0 -0.6781E-03  0  0.1895E-03  0  0.4726E-04  0 -0.1466E-04  0  0.3939E-05
   (  1,  9,  4)  (  1,  9,  4)  (  1,  8,  5)  (  1,  8,  5)  (  1, 11, 10)
  1 -0.9885E-03  0 -0.3090E-03  0 -0.1898E-03  0  0.5448E-04  0  0.1505E-04
   (  1,  4, 10)  (  1,  8,  5)  (  1,  9,  4)  (  1,  9,  4)  (  1,  8,  5)
  0 -0.3636E-05  1 -0.2701E-03  0 -0.7678E-04  0 -0.5007E-04  0  0.1563E-04
   (  1,  8,  5)  (  1, 22, 11)  (  1,  9,  9)  (  1,  9,  4)  (  1,  9,  4)
  0  0.4584E-05  1 -0.7468E-04  0  0.2136E-04  0 -0.1216E-04  0  0.4246E-05
   (  1,  8,  5)  (  1, 23, 13)  (  1,  9,  4)  (  1,  9,  4)  (  1,  9,  4)
  1 -0.2144E-04  0  0.7725E-05  1  0.6861E-05
   (  1, 23, 13)  (  1,  9,  4)  (  1,  7,  8)

 MAXIMUM RESIDUAL FOR EACH ITERATION (1 INDICATES THE FIRST INNER ITERATION):

    RESIDUAL       RESIDUAL       RESIDUAL       RESIDUAL       RESIDUAL    
   LAYER,ROW,COL  LAYER,ROW,COL  LAYER,ROW,COL  LAYER,ROW,COL  LAYER,ROW,COL
 ---------------------------------------------------------------------------
  1   12.93      0   6.624      0   2.861      0  0.9437      0  0.3206    
   (  1,  8, 15)  (  1,  1, 15)  (  1,  1, 15)  (  1,  1, 15)  (  1,  1, 15)
  0  0.1231      0  0.4788E-01  0  0.1887E-01  0  0.5888E-02  0  0.2095E-02
   (  1,  1, 15)  (  1,  1, 15)  (  1,  1, 15)  (  1,  1, 15)  (  1,  1, 15)
  0  0.8472E-03  1   4.437      0   2.223      0  0.8907      0  0.3475    
   (  1,  1, 15)  (  1,  8, 15)  (  1,  1, 15)  (  1,  1, 15)  (  1,  1, 15)
  0  0.1166      0  0.4173E-01  0  0.1554E-01  0  0.5461E-02  0  0.1697E-02
   (  1,  1, 15)  (  1,  1, 15)  (  1,  1, 15)  (  1,  1, 15)  (  1,  1, 15)
  0  0.6074E-03  1   1.470      0  0.7383      0  0.2945      0  0.1208    
   (  1,  1, 15)  (  1,  8, 15)  (  1,  1, 15)  (  1,  1, 15)  (  1,  1, 15)
  0  0.4297E-01  0  0.1467E-01  0  0.5165E-02  0  0.1739E-02  0  0.5946E-03
   (  1,  1, 15)  (  1,  1, 15)  (  1,  1, 15)  (  1,  1, 15)  (  1,  1, 15)
  1  0.4771      0  0.2416      0  0.9486E-01  0  0.3850E-01  0  0.1486E-01
   (  1,  8, 15)  (  1,  1, 15)  (  1,  1, 15)  (  1,  1, 15)  (  1,  1, 15)
  0  0.4991E-02  0  0.1657E-02  0  0.5750E-03  1  0.1531      0  0.7765E-01
   (  1,  1, 15)  (  1,  1, 15)  (  1,  1, 15)  (  1,  8, 15)  (  1,  1, 15)
  0  0.2940E-01  0  0.1170E-01  0  0.4721E-02  0  0.1570E-02  0  0.4953E-03
   (  1,  1, 15)  (  1,  1, 15)  (  1,  1, 15)  (  1,  1, 15)  (  1,  1, 15)
  1  0.4873E-01  0  0.2501E-01  0  0.8736E-02  0  0.3402E-02  0  0.1404E-02
   (  1,  8, 15)  (  1,  8, 15)  (  1,  1, 15)  (  1,  1, 15)  (  1,  1, 15)
  0  0.4580E-03  1  0.1543E-01  0  0.8105E-02  0  0.2530E-02  0  0.9856E-03
   (  1,  1, 15)  (  1,  8, 15)  (  1,  8, 15)  (  1,  6, 15)  (  1,  6, 15)
  0  0.3973E-03  1  0.4871E-02  0  0.2581E-02  0  0.7599E-03  0  0.2853E-03
   (  1,  1, 15)  (  1,  8, 15)  (  1,  8, 15)  (  1,  6, 15)  (  1,  6, 15)
  1  0.1562E-02  0  0.8166E-03  1  0.6873E-03
   (  1,  8, 15)  (  1,  8, 15)  (  1,  8, 15)



 OUTPUT CONTROL FOR STRESS PERIOD    2   TIME STEP    1
    SAVE HEAD FOR ALL LAYERS
    SAVE BUDGET
 UBDSV1 SAVING "         STORAGE" ON UNIT  53 AT TIME STEP     1, STRESS PERIOD   2
 UBDSV2 SAVING "   CONSTANT HEAD" ON UNIT  53 AT TIME STEP     1, STRESS PERIOD   2
 UBDSV1 SAVING "FLOW RIGHT FACE " ON UNIT  53 AT TIME STEP     1, STRESS PERIOD   2
 UBDSV1 SAVING "FLOW FRONT FACE " ON UNIT  53 AT TIME STEP     1, STRESS PERIOD   2

 HEAD WILL BE SAVED ON UNIT   51 AT END OF TIME STEP    1, STRESS PERIOD    2
1
  VOLUMETRIC BUDGET FOR ENTIRE MODEL AT END OF TIME STEP    1, STRESS PERIOD   2
  ------------------------------------------------------------------------------

     CUMULATIVE VOLUMES      L**3       RATES FOR THIS TIME STEP      L**3/T
     ------------------                 ------------------------

           IN:                                      IN:
           ---                                      ---
             STORAGE =     2400151.5000               STORAGE =        1315.1515
       CONSTANT HEAD =           0.0000         CONSTANT HEAD =           0.0000
               WELLS =     1095600.0000                 WELLS =         600.0000
       RIVER LEAKAGE =      502036.1562         RIVER LEAKAGE =         274.9628
            RECHARGE =     6082062.5000              RECHARGE =        3329.1760

            TOTAL IN =    10079850.0000              TOTAL IN =        5519.2900

          OUT:                                     OUT:
          ----                                     ----
             STORAGE =           0.0000               STORAGE =           0.0000
       CONSTANT HEAD =      574769.0625         CONSTANT HEAD =         314.6986
               WELLS =           0.0000                 WELLS =           0.0000
       RIVER LEAKAGE =     9505174.0000         RIVER LEAKAGE =        5204.6426
            RECHARGE =           0.0000              RECHARGE =           0.0000

           TOTAL OUT =    10079943.0000             TOTAL OUT =        5519.3413

            IN - OUT =         -93.0000              IN - OUT =      -5.1270E-02

 PERCENT DISCREPANCY =          -0.00     PERCENT DISCREPANCY =          -0.00






         TIME SUMMARY AT END OF TIME STEP    1 IN STRESS PERIOD    2
                    SECONDS     MINUTES      HOURS       DAYS        YEARS
                    -----------------------------------------------------------
   TIME STEP LENGTH 1.57680E+08 2.62800E+06  43800.      1825.0      4.9966    
 STRESS PERIOD TIME 1.57680E+08 2.62800E+06  43800.      1825.0      4.9966    
         TOTAL TIME 1.57766E+08 2.62944E+06  43824.      1826.0      4.9993    
1
1
                            STRESS PERIOD NO.    3, LENGTH =   1.000000    
                            -----------------------------------------------

                              NUMBER OF TIME STEPS =     1

                               MULTIPLIER FOR DELT =     1.000

                            INITIAL TIME STEP SIZE =   1.000000    

 WELL NO.  LAYER   ROW   COL   STRESS RATE         
 --------------------------------------------------
      1      1      9     16       100.0    
      2      1     11     13       100.0    
      3      1     20     14       100.0    
      4      1     26     10       100.0    
      5      1     29      6       100.0    
      6      1     34     12       100.0    

      6 WELLS

 REUSING NON-PARAMETER RIVER REACHES FROM LAST STRESS PERIOD

     40 RIVER REACHES

 OPENING FILE ON UNIT   99:
 rech_2.ref                                                                                                                                                                                              



                           RECHARGE
 READING ON UNIT   99 WITH FORMAT: (20G15.6)           
 
 SOLVING FOR HEAD 


    11 CALLS TO PCG ROUTINE FOR TIME STEP     1 IN STRESS PERIOD    3
   109 TOTAL ITERATIONS

 MAXIMUM HEAD CHANGE FOR EACH ITERATION (1 INDICATES THE FIRST INNER ITERATION):

    HEAD CHANGE    HEAD CHANGE    HEAD CHANGE    HEAD CHANGE    HEAD CHANGE 
   LAYER,ROW,COL  LAYER,ROW,COL  LAYER,ROW,COL  LAYER,ROW,COL  LAYER,ROW,COL
 ---------------------------------------------------------------------------
  1  -2.514      0  -1.639      0 -0.9242      0 -0.3273      0 -0.1713    
   (  1,  9,  4)  (  1,  8,  5)  (  1, 32,  1)  (  1, 21,  1)  (  1,  1,  3)
  0 -0.8721E-01  0 -0.4100E-01  0 -0.2259E-01  0  0.9043E-02  0 -0.6138E-02
   (  1,  2,  3)  (  1,  1,  7)  (  1,  2,  1)  (  1, 32,  1)  (  1,  4,  1)
  0  0.2532E-02  0 -0.2003E-02  0 -0.1030E-02  0  0.5502E-03  0 -0.1502E-03
   (  1,  9,  4)  (  1,  9,  3)  (  1,  1,  2)  (  1, 32,  1)  (  1, 35,  4)
  0  0.5419E-04  0 -0.3537E-04  0  0.1443E-04  0 -0.4276E-05  1 -0.2927    
   (  1, 35,  4)  (  1,  2,  1)  (  1,  8,  4)  (  1, 26, 12)  (  1, 26,  5)
  0 -0.1763      0 -0.8479E-01  0 -0.3302E-01  0 -0.2699E-01  0 -0.8190E-02
   (  1,  9,  4)  (  1, 33,  2)  (  1, 27,  4)  (  1,  8,  5)  (  1,  4,  1)
  0  0.4917E-02  0 -0.3138E-02  0 -0.1084E-02  0 -0.6766E-03  0 -0.1978E-03
   (  1, 31,  5)  (  1, 10,  1)  (  1,  5,  1)  (  1,  3,  3)  (  1,  3,  6)
  0 -0.2191E-03  0 -0.2351E-03  0  0.5985E-04  0  0.1732E-04  0 -0.1288E-04
   (  1,  8,  5)  (  1,  9,  4)  (  1,  8,  4)  (  1,  3,  5)  (  1,  4,  6)
  0  0.3608E-05  1  0.1014      0  0.4274E-01  0 -0.5438E-01  0 -0.1293E-01
   (  1,  7,  9)  (  1,  9,  4)  (  1,  8,  5)  (  1,  8,  5)  (  1, 35,  4)
  0  0.7465E-02  0  0.3898E-02  0  0.1706E-02  0  0.7628E-03  0  0.5023E-03
   (  1, 26,  1)  (  1, 13,  3)  (  1, 24,  3)  (  1,  2,  1)  (  1,  2,  1)
  0  0.1892E-03  0  0.9952E-04  0 -0.6980E-04  0 -0.3875E-04  0  0.1983E-04
   (  1, 34,  3)  (  1, 20,  3)  (  1,  9,  4)  (  1,  6,  5)  (  1,  1,  2)
  0  0.5497E-05  1  0.3447E-01  0 -0.1289E-01  0 -0.1357E-01  0  0.3504E-02
   (  1,  4,  1)  (  1,  9,  4)  (  1,  9,  4)  (  1,  8,  5)  (  1, 21,  1)
  0  0.3077E-02  0  0.1318E-02  0  0.6214E-03  0  0.3101E-03  0  0.1081E-03
   (  1, 25,  1)  (  1, 15,  4)  (  1, 25,  1)  (  1,  2,  1)  (  1,  2,  1)
  0  0.6640E-04  0  0.3411E-04  0 -0.1877E-04  0  0.1313E-04  0  0.6448E-05
   (  1, 34,  3)  (  1, 20,  4)  (  1, 11,  1)  (  1,  9,  4)  (  1,  1,  2)
  1  0.7815E-02  0 -0.3138E-02  0 -0.4003E-02  0  0.1077E-02  0  0.9092E-03
   (  1,  8,  5)  (  1,  8,  5)  (  1,  9,  4)  (  1, 23,  5)  (  1, 25,  1)
  0  0.2782E-03  0  0.2038E-03  0  0.8028E-04  0 -0.4112E-04  0  0.1742E-04
   (  1, 32,  1)  (  1, 26,  1)  (  1,  2,  1)  (  1, 11,  1)  (  1,  4,  1)
  0 -0.1304E-04  0  0.6310E-05  1  0.1697E-02  0  0.1921E-02  0 -0.8014E-03
   (  1,  9,  4)  (  1,  9,  4)  (  1,  8,  5)  (  1,  9,  4)  (  1,  9,  4)
  0  0.2685E-03  0  0.2022E-03  0  0.1251E-03  0 -0.3735E-04  0  0.2285E-04
   (  1, 24,  4)  (  1,  2,  2)  (  1, 32,  1)  (  1,  8,  4)  (  1,  4,  1)
  0 -0.1265E-04  0 -0.5196E-05  1 -0.3224E-03  0  0.4651E-03  0  0.1348E-03
   (  1, 14,  1)  (  1, 30,  4)  (  1,  9,  4)  (  1,  9,  4)  (  1, 32,  1)
  0  0.7689E-04  0  0.5072E-04  0  0.3320E-04  0  0.1308E-04  0 -0.8340E-05
   (  1, 26,  4)  (  1, 24,  6)  (  1, 28,  1)  (  1, 32,  1)  (  1,  8,  4)
  1 -0.1251E-03  0  0.9145E-04  0  0.5420E-04  0 -0.3185E-04  0  0.1370E-04
   (  1,  9,  4)  (  1,  9,  4)  (  1,  8,  5)  (  1,  9,  4)  (  1, 27,  9)
  0  0.9995E-05  1 -0.4523E-04  0 -0.2705E-04  0  0.2230E-04  0 -0.1148E-04
   (  1, 29,  3)  (  1,  9,  4)  (  1,  8,  5)  (  1,  8,  5)  (  1,  9,  4)
  0  0.3830E-05  1 -0.1459E-04  0 -0.7755E-05  1  0.6261E-05
   (  1, 27,  9)  (  1,  9,  4)  (  1,  8,  5)  (  1,  8,  5)

 MAXIMUM RESIDUAL FOR EACH ITERATION (1 INDICATES THE FIRST INNER ITERATION):

    RESIDUAL       RESIDUAL       RESIDUAL       RESIDUAL       RESIDUAL    
   LAYER,ROW,COL  LAYER,ROW,COL  LAYER,ROW,COL  LAYER,ROW,COL  LAYER,ROW,COL
 ---------------------------------------------------------------------------
  1  -49.92      0   22.09      0   18.43      0   14.36      0   10.13    
   (  1,  9,  4)  (  1,  1,  6)  (  1,  1, 12)  (  1,  1, 13)  (  1,  1, 15)
  0   8.187      0   4.666      0   2.153      0   1.228      0  0.6059    
   (  1,  1, 15)  (  1,  1, 15)  (  1,  1, 15)  (  1,  1, 15)  (  1,  1, 15)
  0  0.2979      0  0.2360      0  0.1153      0  0.5549E-01  0  0.2566E-01
   (  1,  1, 15)  (  1,  1, 15)  (  1,  1, 15)  (  1,  1, 15)  (  1,  1, 15)
  0  0.1082E-01  0  0.4334E-02  0  0.1946E-02  0  0.9434E-03  1   4.173    
   (  1,  1, 15)  (  1,  1, 15)  (  1,  1, 15)  (  1,  1, 15)  (  1,  1, 12)
  0   4.188      0   3.424      0   2.470      0   2.077      0   1.403    
   (  1,  1, 12)  (  1,  1, 13)  (  1,  1, 15)  (  1,  1, 15)  (  1,  1, 15)
  0  0.7746      0  0.3516      0  0.1554      0  0.6342E-01  0  0.3508E-01
   (  1,  1, 15)  (  1,  1, 15)  (  1,  1, 15)  (  1,  1, 15)  (  1,  1, 15)
  0  0.2598E-01  0  0.1677E-01  0  0.8389E-02  0  0.3792E-02  0  0.1707E-02
   (  1,  1, 15)  (  1,  1, 15)  (  1,  1, 15)  (  1,  1, 15)  (  1,  1, 15)
  0  0.7465E-03  1  -2.433      0  -1.329      0   1.039      0  0.6766    
   (  1,  1, 15)  (  1, 29,  6)  (  1, 29,  6)  (  1, 28, 15)  (  1, 25, 15)
  0  0.5165      0  0.3479      0  0.1711      0  0.8337E-01  0  0.3923E-01
   (  1,  1, 15)  (  1,  1, 15)  (  1,  1, 15)  (  1,  1, 15)  (  1,  1, 15)
  0  0.1720E-01  0  0.7594E-02  0  0.6150E-02  0  0.3294E-02  0  0.1441E-02
   (  1,  1, 15)  (  1,  1, 15)  (  1,  1, 15)  (  1,  1, 15)  (  1,  1, 15)
  0  0.5775E-03  1 -0.7884      0 -0.4685      0  0.3144      0  0.2106    
   (  1,  1, 15)  (  1, 29,  6)  (  1, 29,  6)  (  1, 25, 15)  (  1, 31, 15)
  0  0.1247      0  0.8031E-01  0  0.3666E-01  0  0.1606E-01  0  0.8257E-02
   (  1,  1, 15)  (  1,  1, 15)  (  1,  1, 15)  (  1,  2, 13)  (  1,  2, 13)
  0  0.3803E-02  0  0.1786E-02  0  0.1037E-02  0  0.8040E-03  0  0.3147E-03
   (  1, 27, 15)  (  1, 25, 15)  (  1, 26, 15)  (  1, 26, 15)  (  1, 26, 15)
  1 -0.2081      0  0.1193      0  0.9434E-01  0  0.6526E-01  0  0.3385E-01
   (  1, 29,  6)  (  1,  9,  4)  (  1, 25, 15)  (  1, 31, 15)  (  1, 31, 15)
  0  0.2161E-01  0  0.9624E-02  0  0.3816E-02  0  0.2028E-02  0  0.1095E-02
   (  1,  6, 15)  (  1,  6, 15)  (  1, 30, 15)  (  1, 27, 15)  (  1, 27, 15)
  0  0.5976E-03  0  0.4805E-03  1 -0.7038E-01  0  0.3699E-01  0  0.2752E-01
   (  1, 27, 15)  (  1, 27, 15)  (  1, 29,  6)  (  1, 25, 15)  (  1, 32, 15)
  0  0.2001E-01  0  0.9296E-02  0  0.4696E-02  0  0.2309E-02  0  0.1153E-02
   (  1, 31, 15)  (  1,  6, 15)  (  1,  6, 15)  (  1,  6, 15)  (  1,  6, 15)
  0  0.5742E-03  0  0.3246E-03  1 -0.2173E-01  0  0.1172E-01  0  0.8291E-02
   (  1, 28, 15)  (  1, 28, 15)  (  1, 26, 10)  (  1, 25, 15)  (  1, 32, 15)
  0  0.6172E-02  0  0.3013E-02  0  0.1869E-02  0  0.9502E-03  0  0.4448E-03
   (  1, 31, 15)  (  1,  6, 15)  (  1,  6, 15)  (  1,  6, 15)  (  1,  6, 15)
  1 -0.6473E-02  0  0.3689E-02  0  0.2646E-02  0  0.1977E-02  0  0.9724E-03
   (  1, 26, 10)  (  1, 25, 15)  (  1, 31, 15)  (  1, 31, 15)  (  1, 34, 15)
  0  0.5638E-03  1 -0.1811E-02  0  0.1241E-02  0  0.9390E-03  0  0.6234E-03
   (  1,  6, 15)  (  1, 26, 10)  (  1, 25, 15)  (  1, 31, 15)  (  1, 31, 15)
  0  0.3302E-03  1  0.6260E-03  0  0.5094E-03  1  0.4932E-03
   (  1, 34, 15)  (  1, 33, 15)  (  1, 31, 15)  (  1, 33, 15)



 OUTPUT CONTROL FOR STRESS PERIOD    3   TIME STEP    1
    SAVE HEAD FOR ALL LAYERS
    SAVE BUDGET
 UBDSV2 SAVING "   CONSTANT HEAD" ON UNIT  53 AT TIME STEP     1, STRESS PERIOD   3
 UBDSV1 SAVING "FLOW RIGHT FACE " ON UNIT  53 AT TIME STEP     1, STRESS PERIOD   3
 UBDSV1 SAVING "FLOW FRONT FACE " ON UNIT  53 AT TIME STEP     1, STRESS PERIOD   3

 HEAD WILL BE SAVED ON UNIT   51 AT END OF TIME STEP    1, STRESS PERIOD    3
1
  VOLUMETRIC BUDGET FOR ENTIRE MODEL AT END OF TIME STEP    1, STRESS PERIOD   3
  ------------------------------------------------------------------------------

     CUMULATIVE VOLUMES      L**3       RATES FOR THIS TIME STEP      L**3/T
     ------------------                 ------------------------

           IN:                                      IN:
           ---                                      ---
             STORAGE =     2400151.5000               STORAGE =           0.0000
       CONSTANT HEAD =           3.8709         CONSTANT HEAD =           3.8709
               WELLS =     1096200.0000                 WELLS =         600.0000
       RIVER LEAKAGE =      502341.2188         RIVER LEAKAGE =         305.0756
            RECHARGE =     6085391.5000              RECHARGE =        3329.1760

            TOTAL IN =    10084088.0000              TOTAL IN =        4238.1230

          OUT:                                     OUT:
          ----                                     ----
             STORAGE =           0.0000               STORAGE =           0.0000
       CONSTANT HEAD =      574951.3750         CONSTANT HEAD =         182.3126
               WELLS =           0.0000                 WELLS =           0.0000
       RIVER LEAKAGE =     9509230.0000         RIVER LEAKAGE =        4055.8335
            RECHARGE =           0.0000              RECHARGE =           0.0000

           TOTAL OUT =    10084181.0000             TOTAL OUT =        4238.1460

            IN - OUT =         -93.0000              IN - OUT =      -2.2949E-02

 PERCENT DISCREPANCY =          -0.00     PERCENT DISCREPANCY =          -0.00






         TIME SUMMARY AT END OF TIME STEP    1 IN STRESS PERIOD    3
                    SECONDS     MINUTES      HOURS       DAYS        YEARS
                    -----------------------------------------------------------
   TIME STEP LENGTH  86400.      1440.0      24.000      1.0000     2.73785E-03
 STRESS PERIOD TIME  86400.      1440.0      24.000      1.0000     2.73785E-03
         TOTAL TIME 1.57853E+08 2.63088E+06  43848.      1827.0      5.0021    
1

 Run end date and time (yyyy/mm/dd hh:mm:ss): 2018/01/12 22:45:41
 Elapsed run time:  0.037 Seconds

