                                  MODFLOW-NWT-SWR1 
      U.S. GEOLOGICAL SURVEY MODULAR FINITE-DIFFERENCE GROUNDWATER-FLOW MODEL
                            VERSION 1.1.3, 8/01/2017
                    BASED ON MODFLOW-2005 VERSION 1.11.00 08/08/2013

 LIST FILE: freyberg.list
                         UNIT    2

 OPENING freyberg.dis
 FILE TYPE:DIS   UNIT   11   STATUS:OLD    
 FORMAT:FORMATTED              ACCESS:SEQUENTIAL          

 OPENING freyberg.upw
 FILE TYPE:LPF   UNIT   31   STATUS:OLD    
 FORMAT:FORMATTED              ACCESS:SEQUENTIAL          

 OPENING freyberg.bas
 FILE TYPE:BAS6   UNIT   13   STATUS:OLD    
 FORMAT:FORMATTED              ACCESS:SEQUENTIAL          

 OPENING freyberg.rch
 FILE TYPE:RCH   UNIT   19   STATUS:OLD    
 FORMAT:FORMATTED              ACCESS:SEQUENTIAL          

 OPENING freyberg.wel
 FILE TYPE:WEL   UNIT   20   STATUS:OLD    
 FORMAT:FORMATTED              ACCESS:SEQUENTIAL          

 OPENING freyberg.riv
 FILE TYPE:RIV   UNIT   18   STATUS:OLD    
 FORMAT:FORMATTED              ACCESS:SEQUENTIAL          

 OPENING freyberg.oc
 FILE TYPE:OC   UNIT   14   STATUS:OLD    
 FORMAT:FORMATTED              ACCESS:SEQUENTIAL          

 OPENING freyberg.hds
 FILE TYPE:DATA   UNIT   51   STATUS:REPLACE
 FORMAT:FORMATTED              ACCESS:SEQUENTIAL          

 OPENING freyberg.ddn
 FILE TYPE:DATA(BINARY)   UNIT   52   STATUS:REPLACE
 FORMAT:BINARY                 ACCESS:SEQUENTIAL          

 OPENING freyberg.cbc
 FILE TYPE:DATA(BINARY)   UNIT   53   STATUS:REPLACE
 FORMAT:BINARY                 ACCESS:SEQUENTIAL          

 OPENING freyberg.pcg
 FILE TYPE:PCG   UNIT   32   STATUS:OLD    
 FORMAT:FORMATTED              ACCESS:SEQUENTIAL          

 BAS -- BASIC PACKAGE, VERSION 1.1.3, 8/01/2017 INPUT READ FROM UNIT   13
 
 MODFLOW was compiled using mixed precision
 Precision of REAL variables:           6
 Precision of DOUBLE PRECISION variables:          15

 DISCRETIZATION INPUT DATA READ FROM UNIT   11
 # Discretization file for MODFLOW, generated by Flopy.
    1 LAYERS        40 ROWS        20 COLUMNS
    3 STRESS PERIOD(S) IN SIMULATION
 MODEL TIME UNIT IS DAYS
 MODEL LENGTH UNIT IS METERS
  Confining bed flag for each layer:
   0



                               DELR
 READING ON UNIT   11 WITH FORMAT: (20G15.6)           



                               DELC
 READING ON UNIT   11 WITH FORMAT: (40G15.6)           

 TOP ELEVATION OF LAYER 1 =   35.0000    

 OPENING FILE ON UNIT   99:
 botm.ref                                                                                                                                                                                                



             MODEL LAYER BOTTOM EL. FOR LAYER   1
 READING ON UNIT   99 WITH FORMAT: (10E12.4)           


 STRESS PERIOD     LENGTH       TIME STEPS     MULTIPLIER FOR DELT    SS FLAG
 ----------------------------------------------------------------------------
        1         1.000000          1                    1.000         SS
        2         1825.000          1                    1.000         TR
        3         1.000000          1                    1.000         SS

 COMBINED STEADY-STATE AND TRANSIENT SIMULATION



 
 # Basic package file for MODFLOW, generated by Flopy.                           
 THE FREE FORMAT OPTION HAS BEEN SELECTED

 OPENING FILE ON UNIT   99:
 ibound.ref                                                                                                                                                                                              



                     BOUNDARY ARRAY FOR LAYER   1
 READING ON UNIT   99 WITH FORMAT: (25I3)              

 AQUIFER HEAD WILL BE SET TO  -999.99     AT ALL NO-FLOW NODES (IBOUND=0).

 OPENING FILE ON UNIT   99:
 strt.ref                                                                                                                                                                                                



                       INITIAL HEAD FOR LAYER   1
 READING ON UNIT   99 WITH FORMAT: (10E12.4)           
 # Output control package file for MODFLOW, generated by Flopy.

 OUTPUT CONTROL IS SPECIFIED ONLY AT TIME STEPS FOR WHICH OUTPUT IS DESIRED
 HEADS WILL BE SAVED WITH FORMAT: (20E15.6)           
 COMPACT CELL-BY-CELL BUDGET FILES WILL BE WRITTEN
 AUXILIARY DATA WILL BE SAVED IN CELL-BY-CELL BUDGET FILES
 HEAD PRINT FORMAT CODE IS   0    DRAWDOWN PRINT FORMAT CODE IS   0
 HEADS WILL BE SAVED ON UNIT   51    DRAWDOWNS WILL BE SAVED ON UNIT   52

 LPF -- LAYER-PROPERTY FLOW PACKAGE, VERSION 7, 5/2/2005
         INPUT READ FROM UNIT   31
 # UPW for MODFLOW-NWT, generated by Flopy.
 CELL-BY-CELL FLOWS WILL BE SAVED ON UNIT   53
 HEAD AT CELLS THAT CONVERT TO DRY= -1.00000E+30
 No named parameters

   LAYER FLAGS:
 LAYER       LAYTYP        LAYAVG         CHANI        LAYVKA        LAYWET
 ---------------------------------------------------------------------------
    1             1             0     1.000E+00             0             0

   INTERPRETATION OF LAYER FLAGS:
                        INTERBLOCK     HORIZONTAL    DATA IN
         LAYER TYPE   TRANSMISSIVITY   ANISOTROPY   ARRAY VKA   WETTABILITY
 LAYER      (LAYTYP)      (LAYAVG)       (CHANI)      (LAYVKA)      (LAYWET)
 ---------------------------------------------------------------------------
    1   CONVERTIBLE      HARMONIC     1.000E+00    VERTICAL K  NON-WETTABLE

 WETTING CAPABILITY IS NOT ACTIVE IN ANY LAYER

 OPENING FILE ON UNIT   99:
 hk_Layer_1.ref                                                                                                                                                                                          



              HYD. COND. ALONG ROWS FOR LAYER   1
 READING ON UNIT   99 WITH FORMAT: (20G15.6)           

      VERTICAL HYD. COND. =   1.00000     FOR LAYER   1

 OPENING FILE ON UNIT   99:
 ss_Layer_1.ref                                                                                                                                                                                          



                   SPECIFIC STORAGE FOR LAYER   1
 READING ON UNIT   99 WITH FORMAT: (20G15.6)           

           SPECIFIC YIELD =  9.031770E-02 FOR LAYER   1

 WEL -- WELL PACKAGE FOR NWT VERSION 1.1.3,  8/01/2017 INPUT READ FROM UNIT   20
 # Well file for MODFLOW, generated by Flopy.
 No named parameters
 MAXIMUM OF      6 ACTIVE WELLS AT ONE TIME
 No named parameters


     0 Well parameters

 RIV -- RIVER PACKAGE, VERSION 7, 5/2/2005 INPUT READ FROM UNIT   18
 # RIV for MODFLOW, generated by Flopy.
 No named parameters
 MAXIMUM OF     40 ACTIVE RIVER REACHES AT ONE TIME


     0 River parameters

 RCH -- RECHARGE PACKAGE, VERSION 7, 5/2/2005 INPUT READ FROM UNIT   19
 # RCH for MODFLOW, generated by Flopy.
 No named parameters
 OPTION 3 -- RECHARGE TO HIGHEST ACTIVE NODE IN EACH VERTICAL COLUMN


     0 Recharge parameters

 PCG -- CONJUGATE-GRADIENT SOLUTION PACKAGE, VERSION 7, 5/2/2005
 MAXIMUM OF    100 CALLS OF SOLUTION ROUTINE
 MAXIMUM OF     25 INTERNAL ITERATIONS PER CALL TO SOLUTION ROUTINE
 MATRIX PRECONDITIONING TYPE :    1
 IHCOFADD option -- When an active cell is surrounded by dry cells, convert
 the cell to dry only if storage and head-dependent boundary flow are 0.



                                    SOLUTION BY THE CONJUGATE-GRADIENT METHOD
                                   -------------------------------------------
                    MAXIMUM NUMBER OF CALLS TO PCG ROUTINE =      100
                        MAXIMUM ITERATIONS PER CALL TO PCG =       25
                               MATRIX PRECONDITIONING TYPE =        1
        RELAXATION FACTOR (ONLY USED WITH PRECOND. TYPE 1) =    0.10000E+01
 PARAMETER OF POLYNOMIAL PRECOND. = 2 (2) OR IS CALCULATED :        2
                         HEAD CHANGE CRITERION FOR CLOSURE =    0.10000E-04
                     RESIDUAL CHANGE CRITERION FOR CLOSURE =    0.10000E+00
            PCG HEAD AND RESIDUAL CHANGE PRINTOUT INTERVAL =        5
     PRINTING FROM SOLVER IS LIMITED(1) OR SUPPRESSED (>1) =        0
                            STEADY-STATE DAMPING PARAMETER =    0.70000E+00
                               TRANSIENT DAMPING PARAMETER =    0.70000E+00
1
                            STRESS PERIOD NO.    1, LENGTH =   1.000000    
                            -----------------------------------------------

                              NUMBER OF TIME STEPS =     1

                               MULTIPLIER FOR DELT =     1.000

                            INITIAL TIME STEP SIZE =   1.000000    

 WELL NO.  LAYER   ROW   COL   STRESS RATE         
 --------------------------------------------------
      1      1      9     16       100.0    
      2      1     11     13       100.0    
      3      1     20     14       100.0    
      4      1     26     10       100.0    
      5      1     29      6       100.0    
      6      1     34     12       100.0    

      6 WELLS

 REACH NO.  LAYER   ROW   COL     STAGE      CONDUCTANCE     BOTTOM EL.         
 -------------------------------------------------------------------------------
      1      1      1     15       20.10          0.1198E+05       20.00    
      2      1      2     15       19.87           1753.           19.75    
      3      1      3     15       19.65           2767.           19.50    
      4      1      4     15       19.42           3076.           19.25    
      5      1      5     15       19.19           7430.           19.00    
      6      1      6     15       18.97           6041.           18.75    
      7      1      7     15       18.74           769.2           18.50    
      8      1      8     15       18.51           1481.           18.25    
      9      1      9     15       18.28           4254.           18.00    
     10      1     10     15       19.06           9489.           17.75    
     11      1     11     15       17.83           5174.           17.50    
     12      1     12     15       17.60           7341.           17.25    
     13      1     13     15       17.38          0.1644E+05       17.00    
     14      1     14     15       17.15           2363.           16.75    
     15      1     15     15       16.92           3175.           16.50    
     16      1     16     15       16.70          0.4500E+05       16.25    
     17      1     17     15       16.47           4276.           16.00    
     18      1     18     15       16.24          0.2210E+05       15.75    
     19      1     19     15       16.02           953.6           15.50    
     20      1     20     15       15.79           2665.           15.25    
     21      1     21     15       15.56           4297.           15.00    
     22      1     22     15       15.33           1614.           14.75    
     23      1     23     15       15.11           4540.           14.50    
     24      1     24     15       14.88           2233.           14.25    
     25      1     25     15       14.65           6864.           14.00    
     26      1     26     15       14.43           7804.           13.75    
     27      1     27     15       14.20           3572.           13.50    
     28      1     28     15       13.97           2547.           13.25    
     29      1     29     15       13.75           5460.           13.00    
     30      1     30     15       13.52           3284.           12.75    
     31      1     31     15       13.29           2492.           12.50    
     32      1     32     15       13.07          0.1341E+05       12.25    
     33      1     33     15       12.84           9374.           12.00    
     34      1     34     15       12.61           3171.           11.75    
     35      1     35     15       12.38           1697.           11.50    
     36      1     36     15       12.16           3943.           11.25    
     37      1     37     15       11.93          0.1123E+05       11.00    
     38      1     38     15       11.70          0.1599E+05       10.75    
     39      1     39     15       11.48           1771.           10.50    
     40      1     40     15       11.25           7424.           10.25    

     40 RIVER REACHES

 OPENING FILE ON UNIT   99:
 rech_0.ref                                                                                                                                                                                              



                           RECHARGE
 READING ON UNIT   99 WITH FORMAT: (20G15.6)           
 
 SOLVING FOR HEAD 


    15 CALLS TO PCG ROUTINE FOR TIME STEP     1 IN STRESS PERIOD    1
   184 TOTAL ITERATIONS

 MAXIMUM HEAD CHANGE FOR EACH ITERATION (1 INDICATES THE FIRST INNER ITERATION):

    HEAD CHANGE    HEAD CHANGE    HEAD CHANGE    HEAD CHANGE    HEAD CHANGE 
   LAYER,ROW,COL  LAYER,ROW,COL  LAYER,ROW,COL  LAYER,ROW,COL  LAYER,ROW,COL
 ---------------------------------------------------------------------------
  1  -54.96      0  -35.00      0   22.65      0   6.351      0  -3.731    
   (  1, 39, 11)  (  1,  9,  4)  (  1,  9,  4)  (  1,  8,  5)  (  1, 32,  1)
  0  -1.309      0 -0.5175      0 -0.3576      0  0.1207      0 -0.9737E-01
   (  1, 28,  5)  (  1, 25,  9)  (  1, 37,  5)  (  1,  7,  3)  (  1,  8,  4)
  0  0.5691E-01  0 -0.1821E-01  0  0.1741E-01  0  0.7531E-02  0  0.3403E-02
   (  1, 10,  1)  (  1,  9,  4)  (  1,  9,  4)  (  1, 29,  2)  (  1, 35,  4)
  0  0.9323E-03  0 -0.4578E-03  0 -0.1345E-03  0 -0.7395E-04  0 -0.1918E-04
   (  1,  9,  4)  (  1,  8,  3)  (  1, 17,  1)  (  1, 10,  2)  (  1,  8,  5)
  0 -0.1019E-04  0 -0.1151E-04  0  0.8642E-05  1  -14.64      0  -13.72    
   (  1, 17,  3)  (  1,  9,  4)  (  1, 10,  1)  (  1, 39, 11)  (  1,  9,  4)
  0  -6.097      0   2.408      0  -1.402      0 -0.4809      0 -0.2093    
   (  1,  8,  5)  (  1,  8,  5)  (  1, 32,  1)  (  1, 28,  5)  (  1, 14,  1)
  0 -0.1053      0  0.4252E-01  0 -0.2436E-01  0  0.1502E-01  0 -0.9230E-02
   (  1, 37,  5)  (  1,  5,  1)  (  1, 31,  6)  (  1, 10,  1)  (  1,  9,  4)
  0  0.6111E-02  0  0.2398E-02  0  0.8473E-03  0  0.3650E-03  0 -0.1258E-03
   (  1,  9,  4)  (  1, 29,  2)  (  1, 13,  2)  (  1,  2,  1)  (  1,  8,  3)
  0  0.3761E-04  0  0.1745E-04  0 -0.1474E-04  0  0.1117E-04  0 -0.3794E-05
   (  1, 33,  2)  (  1, 28,  9)  (  1,  9,  4)  (  1,  9,  4)  (  1, 16,  3)
  1   10.41      0  -7.813      0  -3.767      0 -0.8307      0 -0.6666    
   (  1,  9,  4)  (  1,  9,  4)  (  1,  8,  5)  (  1,  3,  6)  (  1, 32,  1)
  0 -0.1856      0 -0.9555E-01  0 -0.5013E-01  0 -0.1450E-01  0 -0.8783E-02
   (  1, 28,  4)  (  1, 20,  4)  (  1,  8,  5)  (  1, 27,  7)  (  1, 32,  6)
  0 -0.2745E-02  0  0.2479E-02  0 -0.2162E-02  0  0.8660E-03  0  0.2517E-03
   (  1, 30,  7)  (  1,  9,  4)  (  1,  9,  4)  (  1, 31,  2)  (  1, 25,  7)
  0  0.1175E-03  0  0.3369E-04  0  0.1807E-04  0  0.7154E-05  1   2.109    
   (  1,  2,  1)  (  1, 30,  4)  (  1, 23,  9)  (  1, 29,  2)  (  1,  8,  5)
  0  -1.701      0 -0.7852      0 -0.3731      0 -0.2564      0 -0.6513E-01
   (  1,  8,  5)  (  1,  9,  4)  (  1, 30,  1)  (  1, 32,  1)  (  1, 29,  5)
  0 -0.2937E-01  0 -0.1474E-01  0  0.5262E-02  0 -0.3780E-02  0  0.1489E-02
   (  1,  8,  4)  (  1, 33,  5)  (  1,  6,  1)  (  1, 32,  6)  (  1, 10,  1)
  0 -0.8628E-03  0  0.2683E-03  0  0.1749E-03  0 -0.2039E-03  0  0.4259E-04
   (  1, 31,  2)  (  1,  5,  5)  (  1,  9,  4)  (  1,  9,  4)  (  1,  2,  1)
  0  0.1751E-04  0  0.7490E-05  1  0.5474      0  0.5469      0 -0.2214    
   (  1, 32,  1)  (  1, 23,  9)  (  1,  8,  6)  (  1,  9,  4)  (  1,  9,  4)
  0 -0.1630      0 -0.6224E-01  0 -0.2107E-01  0 -0.1395E-01  0 -0.6009E-02
   (  1, 32,  1)  (  1, 32,  1)  (  1, 20,  4)  (  1, 30,  5)  (  1,  8,  4)
  0  0.3831E-02  0 -0.1605E-02  0  0.8425E-03  0 -0.3960E-03  0  0.2524E-03
   (  1,  7,  3)  (  1, 14,  4)  (  1, 11,  1)  (  1,  9,  4)  (  1,  9,  4)
  0  0.1033E-03  0 -0.4941E-04  0  0.1538E-04  0  0.6332E-05  1 -0.2010    
   (  1,  5,  5)  (  1,  5,  7)  (  1,  3,  3)  (  1, 39, 14)  (  1,  9,  4)
  0  0.2341      0  0.7398E-01  0 -0.6423E-01  0 -0.2830E-01  0 -0.8276E-02
   (  1,  9,  4)  (  1,  8,  5)  (  1,  8,  4)  (  1, 32,  1)  (  1, 19,  4)
  0 -0.5089E-02  0 -0.2086E-02  0 -0.8110E-03  0  0.3584E-03  0  0.1785E-03
   (  1, 30,  5)  (  1, 37,  5)  (  1, 28,  6)  (  1,  7,  3)  (  1, 11,  1)
  0  0.1041E-03  0 -0.9546E-04  0  0.3982E-04  0 -0.1754E-04  0  0.6027E-05
   (  1,  9,  3)  (  1,  9,  4)  (  1,  9,  4)  (  1,  5,  7)  (  1,  3,  3)
  1 -0.6235E-01  0  0.7230E-01  0  0.3388E-01  0 -0.2324E-01  0 -0.1087E-01
   (  1,  9,  4)  (  1,  9,  4)  (  1,  8,  5)  (  1,  8,  5)  (  1, 32,  1)
  0 -0.2638E-02  0 -0.1399E-02  0 -0.5961E-03  0 -0.2648E-03  0 -0.9572E-04
   (  1, 20,  4)  (  1, 31,  6)  (  1, 37,  5)  (  1, 28,  6)  (  1, 35,  6)
  0  0.6455E-04  0  0.2889E-04  0 -0.2727E-04  0  0.1323E-04  0 -0.5461E-05
   (  1, 11,  1)  (  1,  9,  4)  (  1,  9,  4)  (  1,  9,  4)  (  1,  6,  7)
  1  0.1478E-01  0  0.1387E-01  0 -0.8603E-02  0 -0.8152E-02  0 -0.3511E-02
   (  1, 22,  9)  (  1,  8,  5)  (  1,  8,  5)  (  1,  9,  4)  (  1, 32,  1)
  0 -0.7587E-03  0 -0.2657E-03  0 -0.1373E-03  0 -0.5168E-04  0 -0.2670E-04
   (  1, 21,  4)  (  1, 37,  5)  (  1, 37,  5)  (  1, 35,  8)  (  1, 35,  4)
  0  0.1923E-04  0  0.7933E-05  1  0.4510E-02  0  0.4225E-02  0  0.4225E-02
   (  1, 12,  1)  (  1, 32,  1)  (  1, 23, 10)  (  1,  8,  5)  (  1,  9,  4)
  0 -0.2042E-02  0 -0.1044E-02  0 -0.2454E-03  0 -0.1452E-03  0  0.5111E-04
   (  1,  9,  4)  (  1, 32,  1)  (  1, 30,  6)  (  1,  8,  5)  (  1, 14,  1)
  0  0.1953E-04  0 -0.9894E-05  1  0.1508E-02  0 -0.2017E-02  0 -0.8785E-03
   (  1, 29,  1)  (  1, 35,  6)  (  1,  9,  3)  (  1,  9,  4)  (  1, 22,  9)
  0 -0.4033E-03  0 -0.2847E-03  0  0.7358E-04  0 -0.5328E-04  0  0.1243E-04
   (  1, 27,  3)  (  1, 32,  1)  (  1,  9,  4)  (  1,  8,  5)  (  1, 14,  1)
  0 -0.4237E-05  1  0.6900E-03  0 -0.7406E-03  0 -0.2663E-03  0 -0.1201E-03
   (  1, 12, 10)  (  1,  9,  4)  (  1,  9,  4)  (  1, 22,  9)  (  1, 27,  3)
  0 -0.7899E-04  0 -0.1758E-04  0  0.7252E-05  1  0.2459E-03  0 -0.2362E-03
   (  1, 32,  1)  (  1, 36,  5)  (  1, 32,  1)  (  1,  9,  4)  (  1,  9,  4)
  0 -0.9573E-04  0  0.5423E-04  0 -0.2181E-04  0 -0.6708E-05  1  0.8789E-04
   (  1,  8,  5)  (  1,  8,  5)  (  1, 32,  1)  (  1, 30,  6)  (  1,  9,  4)
  0 -0.7602E-04  0 -0.4346E-04  0  0.1697E-04  0 -0.4711E-05  1  0.2297E-04
   (  1,  9,  4)  (  1,  8,  5)  (  1,  8,  5)  (  1, 29,  1)  (  1,  9,  4)
  0 -0.2414E-04  0 -0.1272E-04  0  0.5448E-05  1  0.5574E-05
   (  1,  9,  4)  (  1,  8,  5)  (  1,  8,  5)  (  1, 17, 10)

 MAXIMUM RESIDUAL FOR EACH ITERATION (1 INDICATES THE FIRST INNER ITERATION):

    RESIDUAL       RESIDUAL       RESIDUAL       RESIDUAL       RESIDUAL    
   LAYER,ROW,COL  LAYER,ROW,COL  LAYER,ROW,COL  LAYER,ROW,COL  LAYER,ROW,COL
 ---------------------------------------------------------------------------
  1  0.1373E+05  0   5729.      0   2839.      0   1055.      0  -603.5    
   (  1, 16, 15)  (  1, 16, 15)  (  1, 16, 15)  (  1, 16, 15)  (  1, 39, 15)
  0  -435.6      0  -302.9      0  -166.1      0  -91.49      0  -45.22    
   (  1, 39, 15)  (  1, 39, 15)  (  1, 39, 15)  (  1, 39, 15)  (  1, 39, 15)
  0  -19.01      0  -8.074      0  -5.976      0   2.252      0  0.8380    
   (  1, 39, 15)  (  1, 39, 15)  (  1, 39, 15)  (  1, 16, 15)  (  1, 16, 15)
  0  0.3366      0  0.1419      0 -0.6432E-01  0 -0.3467E-01  0 -0.1730E-01
   (  1, 16, 15)  (  1, 16, 15)  (  1, 38, 15)  (  1, 38, 15)  (  1, 38, 15)
  0 -0.7461E-02  0 -0.5335E-02  0 -0.2515E-02  1   2885.      0   1627.    
   (  1, 38, 15)  (  1, 38, 15)  (  1, 38, 15)  (  1, 16, 15)  (  1, 16, 15)
  0   726.1      0   244.8      0  -138.3      0  -99.34      0  -68.68    
   (  1, 16, 15)  (  1, 16, 15)  (  1, 39, 15)  (  1, 39, 15)  (  1, 39, 15)
  0  -40.47      0  -25.64      0  -13.20      0  -5.653      0  -3.732    
   (  1, 39, 15)  (  1, 39, 15)  (  1, 39, 15)  (  1, 39, 15)  (  1, 39, 15)
  0  -1.892      0 -0.6675      0 -0.2272      0  0.8271E-01  0  0.3326E-01
   (  1, 39, 15)  (  1, 39, 15)  (  1, 39, 15)  (  1, 16, 15)  (  1, 16, 15)
  0  0.1460E-01  0 -0.7780E-02  0 -0.4213E-02  0 -0.3296E-02  0 -0.1430E-02
   (  1, 16, 15)  (  1, 38, 15)  (  1, 38, 15)  (  1, 38, 15)  (  1, 38, 15)
  1   1440.      0   599.8      0   254.5      0   91.52      0   34.46    
   (  1, 16, 15)  (  1, 16, 15)  (  1, 16, 15)  (  1, 16, 15)  (  1, 16, 15)
  0  -23.94      0  -15.90      0  -9.729      0  -6.341      0  -3.745    
   (  1, 39, 15)  (  1, 39, 15)  (  1, 39, 15)  (  1, 39, 15)  (  1, 39, 15)
  0  -1.696      0  -1.200      0 -0.6462      0 -0.2724      0 -0.1120    
   (  1, 39, 15)  (  1, 39, 15)  (  1, 39, 15)  (  1, 39, 15)  (  1, 39, 15)
  0 -0.3456E-01  0 -0.1120E-01  0  0.4497E-02  0  0.1956E-02  1   455.1    
   (  1, 39, 15)  (  1, 39, 15)  (  1, 16, 15)  (  1, 16, 15)  (  1, 16, 15)
  0   155.0      0   99.63      0   36.96      0   13.37      0   6.754    
   (  1, 16, 15)  (  1, 16, 15)  (  1, 16, 15)  (  1, 16, 15)  (  1, 16, 15)
  0  -4.398      0  -2.835      0  -1.957      0  -1.200      0 -0.5833    
   (  1, 39, 15)  (  1, 39, 15)  (  1, 39, 15)  (  1, 39, 15)  (  1, 39, 15)
  0 -0.2772      0 -0.1356      0 -0.1036      0 -0.5484E-01  0 -0.2098E-01
   (  1, 39, 15)  (  1, 39, 15)  (  1, 39, 15)  (  1, 39, 15)  (  1, 39, 15)
  0 -0.7390E-02  0 -0.2502E-02  1   224.8      0   113.0      0   39.75    
   (  1, 39, 15)  (  1, 39, 15)  (  1, 16, 15)  (  1, 16, 15)  (  1, 16, 15)
  0   12.68      0   4.820      0   2.426      0   1.374      0 -0.8169    
   (  1, 16, 15)  (  1, 16, 15)  (  1, 16, 15)  (  1, 16, 15)  (  1, 39, 15)
  0 -0.5618      0 -0.3714      0 -0.1959      0 -0.1433      0 -0.8699E-01
   (  1, 39, 15)  (  1, 39, 15)  (  1, 39, 15)  (  1, 39, 15)  (  1, 39, 15)
  0 -0.4092E-01  0 -0.2007E-01  0 -0.8705E-02  0 -0.3286E-02  1   95.26    
   (  1, 39, 15)  (  1, 39, 15)  (  1, 39, 15)  (  1, 39, 15)  (  1, 16, 15)
  0   48.01      0   16.88      0   4.971      0   1.770      0  0.9563    
   (  1, 16, 15)  (  1, 16, 15)  (  1, 16, 15)  (  1, 16, 15)  (  1, 16, 15)
  0  0.4925      0 -0.2535      0 -0.1735      0 -0.1131      0 -0.6278E-01
   (  1, 16, 15)  (  1, 39, 15)  (  1, 39, 15)  (  1, 39, 15)  (  1, 39, 15)
  0 -0.4170E-01  0 -0.2908E-01  0 -0.1286E-01  0 -0.6273E-02  0 -0.2834E-02
   (  1, 39, 15)  (  1, 39, 15)  (  1, 39, 15)  (  1, 39, 15)  (  1, 39, 15)
  1   30.39      0   17.21      0   6.756      0   1.851      0  0.5868    
   (  1, 16, 15)  (  1, 16, 15)  (  1, 16, 15)  (  1, 16, 15)  (  1, 16, 15)
  0  0.3053      0  0.1633      0  0.8729E-01  0 -0.5504E-01  0 -0.3410E-01
   (  1, 16, 15)  (  1, 16, 15)  (  1, 16, 15)  (  1, 39, 15)  (  1, 39, 15)
  0 -0.1945E-01  0 -0.1210E-01  0 -0.9272E-02  0 -0.3895E-02  0 -0.1828E-02
   (  1, 39, 15)  (  1, 39, 15)  (  1, 39, 15)  (  1, 39, 15)  (  1, 39, 15)
  1   9.588      0   3.361      0   1.540      0  0.6315      0  0.1863    
   (  1, 16, 15)  (  1, 16, 15)  (  1, 16, 15)  (  1, 16, 15)  (  1, 16, 15)
  0  0.8598E-01  0  0.4920E-01  0  0.2295E-01  0 -0.1308E-01  0 -0.8885E-02
   (  1, 16, 15)  (  1, 16, 15)  (  1, 16, 15)  (  1, 39, 15)  (  1, 39, 15)
  0 -0.5749E-02  0 -0.3231E-02  1   3.583      0   2.227      0  0.7669    
   (  1, 39, 15)  (  1, 39, 15)  (  1, 16, 15)  (  1, 16, 15)  (  1, 16, 15)
  0  0.2109      0  0.6053E-01  0  0.2844E-01  0  0.1688E-01  0  0.8179E-02
   (  1, 16, 15)  (  1, 16, 15)  (  1, 16, 15)  (  1, 16, 15)  (  1, 16, 15)
  0 -0.4948E-02  0 -0.2954E-02  1   1.396      0  0.7875      0  0.2357    
   (  1, 39, 15)  (  1, 39, 15)  (  1, 16, 15)  (  1, 16, 15)  (  1, 16, 15)
  0  0.6768E-01  0  0.1961E-01  0  0.8880E-02  0  0.5315E-02  0  0.2356E-02
   (  1, 16, 15)  (  1, 16, 15)  (  1, 16, 15)  (  1, 16, 15)  (  1, 16, 15)
  0 -0.1174E-02  1  0.4927      0  0.2609      0  0.7443E-01  0  0.2183E-01
   (  1, 39, 15)  (  1, 16, 15)  (  1, 16, 15)  (  1, 16, 15)  (  1, 16, 15)
  0  0.6100E-02  0  0.2482E-02  0  0.1473E-02  1  0.1555      0  0.8509E-01
   (  1, 16, 15)  (  1, 16, 15)  (  1, 16, 15)  (  1, 16, 15)  (  1, 16, 15)
  0  0.2685E-01  0  0.6951E-02  0  0.1794E-02  0  0.8296E-03  1  0.4782E-01
   (  1, 16, 15)  (  1, 16, 15)  (  1, 16, 15)  (  1, 16, 15)  (  1, 16, 15)
  0  0.2813E-01  0  0.1246E-01  0  0.1699E-02  0  0.4732E-03  1  0.1456E-01
   (  1, 16, 15)  (  1, 16, 15)  (  1, 16, 15)  (  1, 16, 15)  (  1, 16, 15)
  0  0.8448E-02  0  0.4362E-02  0  0.5701E-03  1  0.6781E-02
   (  1, 16, 15)  (  1, 16, 15)  (  1, 16, 15)  (  1, 16, 15)



 OUTPUT CONTROL FOR STRESS PERIOD    1   TIME STEP    1
    SAVE HEAD FOR ALL LAYERS
    SAVE BUDGET
 UBDSV2 SAVING "   CONSTANT HEAD" ON UNIT  53 AT TIME STEP     1, STRESS PERIOD   1
 UBDSV1 SAVING "FLOW RIGHT FACE " ON UNIT  53 AT TIME STEP     1, STRESS PERIOD   1
 UBDSV1 SAVING "FLOW FRONT FACE " ON UNIT  53 AT TIME STEP     1, STRESS PERIOD   1

 HEAD WILL BE SAVED ON UNIT   51 AT END OF TIME STEP    1, STRESS PERIOD    1
1
  VOLUMETRIC BUDGET FOR ENTIRE MODEL AT END OF TIME STEP    1, STRESS PERIOD   1
  ------------------------------------------------------------------------------

     CUMULATIVE VOLUMES      L**3       RATES FOR THIS TIME STEP      L**3/T
     ------------------                 ------------------------

           IN:                                      IN:
           ---                                      ---
             STORAGE =           0.0000               STORAGE =           0.0000
       CONSTANT HEAD =           0.0000         CONSTANT HEAD =           0.0000
               WELLS =         600.0000                 WELLS =         600.0000
       RIVER LEAKAGE =         233.0054         RIVER LEAKAGE =         233.0054
            RECHARGE =        6341.9956              RECHARGE =        6341.9956

            TOTAL IN =        7175.0010              TOTAL IN =        7175.0010

          OUT:                                     OUT:
          ----                                     ----
             STORAGE =           0.0000               STORAGE =           0.0000
       CONSTANT HEAD =         412.2477         CONSTANT HEAD =         412.2477
               WELLS =           0.0000                 WELLS =           0.0000
       RIVER LEAKAGE =        6762.9058         RIVER LEAKAGE =        6762.9058
            RECHARGE =           0.0000              RECHARGE =           0.0000

           TOTAL OUT =        7175.1533             TOTAL OUT =        7175.1533

            IN - OUT =          -0.1523              IN - OUT =          -0.1523

 PERCENT DISCREPANCY =          -0.00     PERCENT DISCREPANCY =          -0.00






         TIME SUMMARY AT END OF TIME STEP    1 IN STRESS PERIOD    1
                    SECONDS     MINUTES      HOURS       DAYS        YEARS
                    -----------------------------------------------------------
   TIME STEP LENGTH  86400.      1440.0      24.000      1.0000     2.73785E-03
 STRESS PERIOD TIME  86400.      1440.0      24.000      1.0000     2.73785E-03
         TOTAL TIME  86400.      1440.0      24.000      1.0000     2.73785E-03
1
1
                            STRESS PERIOD NO.    2, LENGTH =   1825.000    
                            -----------------------------------------------

                              NUMBER OF TIME STEPS =     1

                               MULTIPLIER FOR DELT =     1.000

                            INITIAL TIME STEP SIZE =   1825.000    

 WELL NO.  LAYER   ROW   COL   STRESS RATE         
 --------------------------------------------------
      1      1      9     16       100.0    
      2      1     11     13       100.0    
      3      1     20     14       100.0    
      4      1     26     10       100.0    
      5      1     29      6       100.0    
      6      1     34     12       100.0    

      6 WELLS

 REUSING NON-PARAMETER RIVER REACHES FROM LAST STRESS PERIOD

     40 RIVER REACHES

 OPENING FILE ON UNIT   99:
 rech_1.ref                                                                                                                                                                                              



                           RECHARGE
 READING ON UNIT   99 WITH FORMAT: (20G15.6)           
 
 SOLVING FOR HEAD 


    10 CALLS TO PCG ROUTINE FOR TIME STEP     1 IN STRESS PERIOD    2
    63 TOTAL ITERATIONS

 MAXIMUM HEAD CHANGE FOR EACH ITERATION (1 INDICATES THE FIRST INNER ITERATION):

    HEAD CHANGE    HEAD CHANGE    HEAD CHANGE    HEAD CHANGE    HEAD CHANGE 
   LAYER,ROW,COL  LAYER,ROW,COL  LAYER,ROW,COL  LAYER,ROW,COL  LAYER,ROW,COL
 ---------------------------------------------------------------------------
  1 -0.7493      0 -0.1250      0 -0.4404E-01  0 -0.1643E-01  0 -0.3954E-02
   (  1,  9,  4)  (  1,  1, 12)  (  1,  2,  5)  (  1,  3,  1)  (  1,  4,  1)
  0  0.1417E-02  0  0.5939E-03  0 -0.2492E-03  0 -0.8114E-04  0  0.2401E-04
   (  1,  9,  4)  (  1,  8,  5)  (  1,  8,  5)  (  1,  8,  1)  (  1, 32,  1)
  0 -0.5275E-05  1 -0.1625      0 -0.3706E-01  0 -0.1699E-01  0 -0.4697E-02
   (  1,  9,  4)  (  1,  4,  7)  (  1,  1, 13)  (  1,  2,  6)  (  1,  8,  5)
  0 -0.2780E-02  0 -0.7133E-03  0  0.1570E-03  0 -0.6027E-04  0  0.1832E-04
   (  1,  9,  4)  (  1,  8,  5)  (  1,  8,  5)  (  1,  4,  2)  (  1, 30,  4)
  0  0.5985E-05  1 -0.4369E-01  0 -0.1270E-01  0 -0.5402E-02  0  0.1905E-02
   (  1, 32,  1)  (  1, 22,  9)  (  1,  8,  5)  (  1,  9,  3)  (  1,  9,  4)
  0 -0.6600E-03  0 -0.2235E-03  0 -0.4576E-04  0  0.1501E-04  0  0.6039E-05
   (  1,  9,  4)  (  1,  8,  5)  (  1,  2,  4)  (  1, 27,  6)  (  1, 30,  5)
  1 -0.1216E-01  0 -0.4146E-02  0 -0.2152E-02  0  0.6463E-03  0  0.1399E-03
   (  1,  5, 10)  (  1,  8,  5)  (  1,  9,  4)  (  1,  9,  4)  (  1,  8,  5)
  0 -0.6212E-04  0 -0.1504E-04  0  0.4583E-05  1 -0.3435E-02  0 -0.1187E-02
   (  1,  8,  5)  (  1,  2,  4)  (  1, 27,  6)  (  1,  4, 10)  (  1,  8,  5)
  0 -0.6796E-03  0  0.1945E-03  0  0.4725E-04  0 -0.1589E-04  0 -0.3965E-05
   (  1,  9,  4)  (  1,  9,  4)  (  1,  8,  5)  (  1,  8,  5)  (  1,  2,  4)
  1 -0.9425E-03  0 -0.3101E-03  0 -0.1907E-03  0  0.5665E-04  0  0.1532E-04
   (  1,  4, 10)  (  1,  8,  5)  (  1,  9,  4)  (  1,  9,  4)  (  1,  8,  5)
  0 -0.3937E-05  1 -0.2587E-03  0 -0.7814E-04  0 -0.5045E-04  0  0.1638E-04
   (  1,  8,  5)  (  1, 22, 11)  (  1,  9,  9)  (  1,  9,  4)  (  1,  9,  4)
  0  0.4672E-05  1 -0.6969E-04  0  0.2292E-04  0 -0.1233E-04  0  0.4458E-05
   (  1,  4,  1)  (  1, 22, 11)  (  1,  9,  4)  (  1,  9,  4)  (  1,  9,  4)
  1 -0.1976E-04  0  0.8072E-05  1  0.6798E-05
   (  1, 23, 13)  (  1,  9,  4)  (  1,  7,  8)

 MAXIMUM RESIDUAL FOR EACH ITERATION (1 INDICATES THE FIRST INNER ITERATION):

    RESIDUAL       RESIDUAL       RESIDUAL       RESIDUAL       RESIDUAL    
   LAYER,ROW,COL  LAYER,ROW,COL  LAYER,ROW,COL  LAYER,ROW,COL  LAYER,ROW,COL
 ---------------------------------------------------------------------------
  1   13.32      0   6.302      0   2.885      0  0.9658      0  0.3215    
   (  1,  8, 15)  (  1,  1, 15)  (  1,  1, 15)  (  1,  1, 15)  (  1,  1, 15)
  0  0.1255      0  0.5167E-01  0  0.2096E-01  0  0.6652E-02  0  0.2469E-02
   (  1,  1, 15)  (  1,  1, 15)  (  1,  1, 15)  (  1,  1, 15)  (  1,  1, 15)
  0  0.1040E-02  1   4.583      0   2.132      0  0.9194      0  0.3686    
   (  1,  1, 15)  (  1,  8, 15)  (  1,  1, 15)  (  1,  1, 15)  (  1,  1, 15)
  0  0.1236      0  0.4619E-01  0  0.1698E-01  0  0.6303E-02  0  0.1972E-02
   (  1,  1, 15)  (  1,  1, 15)  (  1,  1, 15)  (  1,  1, 15)  (  1,  1, 15)
  0  0.7445E-03  1   1.517      0  0.7076      0  0.3044      0  0.1270    
   (  1,  1, 15)  (  1,  8, 15)  (  1,  1, 15)  (  1,  1, 15)  (  1,  1, 15)
  0  0.4529E-01  0  0.1602E-01  0  0.5620E-02  0  0.2011E-02  0  0.6990E-03
   (  1,  1, 15)  (  1,  1, 15)  (  1,  1, 15)  (  1,  1, 15)  (  1,  1, 15)
  1  0.4914      0  0.2308      0  0.9794E-01  0  0.4006E-01  0  0.1561E-01
   (  1,  8, 15)  (  1,  1, 15)  (  1,  1, 15)  (  1,  1, 15)  (  1,  1, 15)
  0  0.5408E-02  0  0.1812E-02  0  0.6619E-03  1  0.1574      0  0.7587E-01
   (  1,  1, 15)  (  1,  1, 15)  (  1,  1, 15)  (  1,  8, 15)  (  1,  5, 15)
  0  0.3020E-01  0  0.1203E-01  0  0.4933E-02  0  0.1693E-02  0  0.5440E-03
   (  1,  1, 15)  (  1,  1, 15)  (  1,  1, 15)  (  1,  1, 15)  (  1,  1, 15)
  1  0.5002E-01  0  0.2536E-01  0  0.8900E-02  0  0.3463E-02  0  0.1457E-02
   (  1,  8, 15)  (  1,  8, 15)  (  1,  1, 15)  (  1,  6, 15)  (  1,  1, 15)
  0  0.4915E-03  1  0.1579E-01  0  0.8213E-02  0  0.2737E-02  0  0.1051E-02
   (  1,  1, 15)  (  1,  8, 15)  (  1,  8, 15)  (  1,  6, 15)  (  1,  6, 15)
  0  0.4099E-03  1  0.4962E-02  0  0.2613E-02  0  0.8147E-03  0  0.3038E-03
   (  1,  1, 15)  (  1,  8, 15)  (  1,  8, 15)  (  1,  6, 15)  (  1,  6, 15)
  1  0.1616E-02  0  0.8277E-03  1  0.7375E-03
   (  1, 25, 15)  (  1,  8, 15)  (  1, 25, 15)



 OUTPUT CONTROL FOR STRESS PERIOD    2   TIME STEP    1
    SAVE HEAD FOR ALL LAYERS
    SAVE BUDGET
 UBDSV1 SAVING "         STORAGE" ON UNIT  53 AT TIME STEP     1, STRESS PERIOD   2
 UBDSV2 SAVING "   CONSTANT HEAD" ON UNIT  53 AT TIME STEP     1, STRESS PERIOD   2
 UBDSV1 SAVING "FLOW RIGHT FACE " ON UNIT  53 AT TIME STEP     1, STRESS PERIOD   2
 UBDSV1 SAVING "FLOW FRONT FACE " ON UNIT  53 AT TIME STEP     1, STRESS PERIOD   2

 HEAD WILL BE SAVED ON UNIT   51 AT END OF TIME STEP    1, STRESS PERIOD    2
1
  VOLUMETRIC BUDGET FOR ENTIRE MODEL AT END OF TIME STEP    1, STRESS PERIOD   2
  ------------------------------------------------------------------------------

     CUMULATIVE VOLUMES      L**3       RATES FOR THIS TIME STEP      L**3/T
     ------------------                 ------------------------

           IN:                                      IN:
           ---                                      ---
             STORAGE =     2174495.0000               STORAGE =        1191.5042
       CONSTANT HEAD =           0.0000         CONSTANT HEAD =           0.0000
               WELLS =     1095600.0000                 WELLS =         600.0000
       RIVER LEAKAGE =      506565.7812         RIVER LEAKAGE =         277.4426
            RECHARGE =     6391972.0000              RECHARGE =        3498.9753

            TOTAL IN =    10168633.0000              TOTAL IN =        5567.9219

          OUT:                                     OUT:
          ----                                     ----
             STORAGE =           0.0000               STORAGE =           0.0000
       CONSTANT HEAD =      527288.1250         CONSTANT HEAD =         288.6991
               WELLS =           0.0000                 WELLS =           0.0000
       RIVER LEAKAGE =     9641433.0000         RIVER LEAKAGE =        5279.2710
            RECHARGE =           0.0000              RECHARGE =           0.0000

           TOTAL OUT =    10168721.0000             TOTAL OUT =        5567.9702

            IN - OUT =         -88.0000              IN - OUT =      -4.8340E-02

 PERCENT DISCREPANCY =          -0.00     PERCENT DISCREPANCY =          -0.00






         TIME SUMMARY AT END OF TIME STEP    1 IN STRESS PERIOD    2
                    SECONDS     MINUTES      HOURS       DAYS        YEARS
                    -----------------------------------------------------------
   TIME STEP LENGTH 1.57680E+08 2.62800E+06  43800.      1825.0      4.9966    
 STRESS PERIOD TIME 1.57680E+08 2.62800E+06  43800.      1825.0      4.9966    
         TOTAL TIME 1.57766E+08 2.62944E+06  43824.      1826.0      4.9993    
1
1
                            STRESS PERIOD NO.    3, LENGTH =   1.000000    
                            -----------------------------------------------

                              NUMBER OF TIME STEPS =     1

                               MULTIPLIER FOR DELT =     1.000

                            INITIAL TIME STEP SIZE =   1.000000    

 WELL NO.  LAYER   ROW   COL   STRESS RATE         
 --------------------------------------------------
      1      1      9     16       100.0    
      2      1     11     13       100.0    
      3      1     20     14       100.0    
      4      1     26     10       100.0    
      5      1     29      6       100.0    
      6      1     34     12       100.0    

      6 WELLS

 REUSING NON-PARAMETER RIVER REACHES FROM LAST STRESS PERIOD

     40 RIVER REACHES

 OPENING FILE ON UNIT   99:
 rech_2.ref                                                                                                                                                                                              



                           RECHARGE
 READING ON UNIT   99 WITH FORMAT: (20G15.6)           
 
 SOLVING FOR HEAD 


    11 CALLS TO PCG ROUTINE FOR TIME STEP     1 IN STRESS PERIOD    3
   106 TOTAL ITERATIONS

 MAXIMUM HEAD CHANGE FOR EACH ITERATION (1 INDICATES THE FIRST INNER ITERATION):

    HEAD CHANGE    HEAD CHANGE    HEAD CHANGE    HEAD CHANGE    HEAD CHANGE 
   LAYER,ROW,COL  LAYER,ROW,COL  LAYER,ROW,COL  LAYER,ROW,COL  LAYER,ROW,COL
 ---------------------------------------------------------------------------
  1  -2.338      0  -1.477      0 -0.8384      0 -0.3152      0 -0.1632    
   (  1,  9,  4)  (  1,  8,  5)  (  1, 32,  1)  (  1, 21,  1)  (  1,  1,  3)
  0  0.7647E-01  0 -0.3632E-01  0 -0.2174E-01  0  0.7840E-02  0 -0.4874E-02
   (  1, 30,  5)  (  1,  1,  7)  (  1,  2,  1)  (  1, 33,  2)  (  1,  4,  1)
  0  0.2118E-02  0  0.1432E-02  0 -0.9495E-03  0  0.4257E-03  0 -0.1407E-03
   (  1, 30,  2)  (  1,  9,  4)  (  1,  9,  3)  (  1, 32,  1)  (  1, 35,  4)
  0  0.6045E-04  0 -0.3197E-04  0  0.1193E-04  0  0.3358E-05  1 -0.2470    
   (  1, 33,  2)  (  1,  2,  1)  (  1,  8,  4)  (  1, 38, 11)  (  1, 26,  4)
  0 -0.1819      0 -0.8218E-01  0  0.3172E-01  0 -0.2615E-01  0 -0.7358E-02
   (  1,  9,  4)  (  1, 33,  2)  (  1,  8,  5)  (  1,  4,  2)  (  1,  2,  6)
  0  0.4516E-02  0 -0.3142E-02  0 -0.1030E-02  0 -0.8720E-03  0  0.3839E-03
   (  1, 31,  5)  (  1,  8,  1)  (  1,  3,  7)  (  1,  6,  2)  (  1,  8,  5)
  0 -0.2264E-03  0 -0.1498E-03  0 -0.6128E-04  0  0.1808E-04  0 -0.1053E-04
   (  1,  8,  5)  (  1,  9,  4)  (  1,  5,  5)  (  1,  3,  5)  (  1,  2,  3)
  0  0.3703E-05  1  0.9399E-01  0  0.3997E-01  0 -0.4885E-01  0 -0.1205E-01
   (  1,  7,  9)  (  1,  9,  4)  (  1,  8,  5)  (  1,  8,  5)  (  1, 35,  4)
  0  0.6681E-02  0  0.3700E-02  0  0.1502E-02  0  0.7048E-03  0  0.4177E-03
   (  1, 26,  1)  (  1, 14,  3)  (  1, 24,  3)  (  1,  2,  1)  (  1,  2,  1)
  0  0.2006E-03  0  0.8885E-04  0  0.6606E-04  0 -0.4224E-04  0  0.1869E-04
   (  1, 26,  1)  (  1,  2,  1)  (  1,  9,  4)  (  1,  9,  3)  (  1,  1,  2)
  0 -0.6221E-05  1  0.3154E-01  0 -0.1222E-01  0 -0.1213E-01  0 -0.3407E-02
   (  1, 11,  1)  (  1,  9,  4)  (  1,  9,  4)  (  1,  8,  5)  (  1, 35,  4)
  0  0.2704E-02  0  0.1173E-02  0  0.5518E-03  0  0.3028E-03  0  0.1031E-03
   (  1, 25,  1)  (  1, 15,  4)  (  1, 25,  1)  (  1,  2,  1)  (  1, 25,  3)
  0  0.6364E-04  0 -0.3169E-04  0 -0.1560E-04  0  0.1276E-04  0  0.5565E-05
   (  1, 34,  3)  (  1, 31,  1)  (  1, 11,  1)  (  1,  9,  4)  (  1,  1,  2)
  1  0.7096E-02  0  0.3318E-02  0 -0.3778E-02  0  0.9429E-03  0  0.7898E-03
   (  1,  8,  5)  (  1,  9,  4)  (  1,  9,  4)  (  1, 23,  5)  (  1, 25,  1)
  0  0.2562E-03  0  0.1797E-03  0  0.8266E-04  0 -0.3599E-04  0  0.1395E-04
   (  1, 32,  1)  (  1, 26,  1)  (  1,  2,  1)  (  1, 10,  1)  (  1,  4,  1)
  0 -0.8755E-05  1  0.1489E-02  0  0.1801E-02  0 -0.7509E-03  0  0.2322E-03
   (  1, 31,  2)  (  1,  8,  5)  (  1,  9,  4)  (  1,  9,  4)  (  1, 24,  4)
  0  0.1882E-03  0  0.1087E-03  0  0.3070E-04  0  0.1692E-04  0 -0.8447E-05
   (  1,  2,  2)  (  1, 32,  1)  (  1, 22,  4)  (  1,  3,  1)  (  1, 13,  1)
  1 -0.3082E-03  0  0.4231E-03  0  0.1141E-03  0  0.6547E-04  0  0.4762E-04
   (  1,  9,  4)  (  1,  9,  4)  (  1, 32,  1)  (  1, 26,  4)  (  1,  3,  2)
  0  0.3052E-04  0  0.9875E-05  1 -0.1208E-03  0  0.7876E-04  0  0.5490E-04
   (  1, 29,  1)  (  1, 32,  1)  (  1,  9,  4)  (  1,  9,  4)  (  1,  8,  5)
  0 -0.3189E-04  0  0.1187E-04  0  0.8963E-05  1 -0.4329E-04  0 -0.2563E-04
   (  1,  9,  4)  (  1, 24,  6)  (  1, 29,  3)  (  1,  9,  4)  (  1,  8,  5)
  0  0.2127E-04  0 -0.1062E-04  0  0.3302E-05  1 -0.1392E-04  0 -0.6954E-05
   (  1,  8,  5)  (  1,  9,  4)  (  1, 27,  9)  (  1,  9,  4)  (  1,  8,  5)
  1  0.5678E-05
   (  1,  8,  5)

 MAXIMUM RESIDUAL FOR EACH ITERATION (1 INDICATES THE FIRST INNER ITERATION):

    RESIDUAL       RESIDUAL       RESIDUAL       RESIDUAL       RESIDUAL    
   LAYER,ROW,COL  LAYER,ROW,COL  LAYER,ROW,COL  LAYER,ROW,COL  LAYER,ROW,COL
 ---------------------------------------------------------------------------
  1  -44.79      0  -19.52      0   16.15      0   12.78      0   8.774    
   (  1,  9,  4)  (  1, 21,  4)  (  1,  1,  7)  (  1,  1, 13)  (  1,  1, 15)
  0   7.051      0   4.062      0   1.878      0   1.079      0  0.5673    
   (  1,  1, 15)  (  1,  1, 15)  (  1,  1, 15)  (  1,  1, 15)  (  1,  1, 15)
  0  0.2588      0  0.2092      0  0.1053      0  0.5044E-01  0  0.2380E-01
   (  1,  1, 15)  (  1,  1, 15)  (  1,  1, 15)  (  1,  1, 15)  (  1,  1, 15)
  0  0.9802E-02  0  0.3858E-02  0  0.1757E-02  0  0.8070E-03  1   3.953    
   (  1,  1, 15)  (  1,  1, 15)  (  1,  1, 15)  (  1,  1, 15)  (  1,  9,  4)
  0   3.632      0   3.364      0   2.468      0   1.812      0   1.234    
   (  1,  1, 12)  (  1, 25, 15)  (  1, 25, 15)  (  1,  1, 15)  (  1,  1, 15)
  0  0.7000      0  0.3115      0  0.1459      0  0.8185E-01  0  0.4324E-01
   (  1,  1, 15)  (  1,  1, 15)  (  1,  1, 15)  (  1,  1, 15)  (  1,  1, 15)
  0  0.2253E-01  0  0.1773E-01  0  0.8649E-02  0  0.3787E-02  0  0.1707E-02
   (  1,  1, 15)  (  1,  1, 15)  (  1,  1, 15)  (  1,  1, 15)  (  1,  1, 15)
  0  0.7128E-03  1  -2.237      0  -1.209      0   1.049      0  0.7197    
   (  1,  1, 15)  (  1, 29,  6)  (  1, 29,  6)  (  1, 25, 15)  (  1, 25, 15)
  0  0.4503      0  0.3039      0  0.1559      0  0.7458E-01  0  0.3558E-01
   (  1,  1, 15)  (  1,  1, 15)  (  1,  1, 15)  (  1,  1, 15)  (  1,  1, 15)
  0  0.1602E-01  0  0.7272E-02  0  0.5896E-02  0  0.3017E-02  0  0.1239E-02
   (  1,  1, 15)  (  1,  1, 15)  (  1,  1, 15)  (  1,  1, 15)  (  1,  1, 15)
  0  0.5371E-03  1 -0.7117      0 -0.4116      0  0.3257      0  0.1982    
   (  1,  1, 15)  (  1, 29,  6)  (  1, 29,  6)  (  1, 25, 15)  (  1, 25, 15)
  0  0.1089      0  0.7012E-01  0  0.3367E-01  0  0.1442E-01  0  0.7291E-02
   (  1,  6, 15)  (  1,  1, 15)  (  1,  1, 15)  (  1,  2, 13)  (  1,  2, 13)
  0  0.3568E-02  0  0.1683E-02  0  0.1023E-02  0  0.7483E-03  0  0.2843E-03
   (  1, 27, 15)  (  1, 25, 15)  (  1, 26, 15)  (  1, 26, 15)  (  1, 26, 15)
  1 -0.1903      0  0.1105      0  0.9800E-01  0  0.5801E-01  0  0.3077E-01
   (  1, 29,  6)  (  1, 25, 15)  (  1, 25, 15)  (  1, 32, 15)  (  1,  6, 15)
  0  0.1980E-01  0  0.9240E-02  0  0.3339E-02  0  0.1885E-02  0  0.1029E-02
   (  1,  6, 15)  (  1,  6, 15)  (  1,  6, 15)  (  1, 27, 15)  (  1, 27, 15)
  0  0.5551E-03  1 -0.6535E-01  0  0.3712E-01  0  0.2840E-01  0  0.1797E-01
   (  1, 26, 15)  (  1, 29,  6)  (  1, 25, 15)  (  1, 25, 15)  (  1, 31, 15)
  0  0.8974E-02  0  0.4488E-02  0  0.2271E-02  0  0.1063E-02  0  0.5118E-03
   (  1,  6, 15)  (  1,  6, 15)  (  1,  6, 15)  (  1,  6, 15)  (  1, 28, 15)
  1 -0.1980E-01  0  0.1185E-01  0  0.8226E-02  0  0.5613E-02  0  0.2926E-02
   (  1, 26, 10)  (  1, 25, 15)  (  1, 25, 15)  (  1, 31, 15)  (  1,  6, 15)
  0  0.1756E-02  0  0.9038E-03  1 -0.5925E-02  0  0.3806E-02  0  0.2729E-02
   (  1,  6, 15)  (  1,  6, 15)  (  1, 26, 10)  (  1, 25, 15)  (  1, 25, 15)
  0  0.1850E-02  0  0.9391E-03  0  0.5501E-03  1 -0.1660E-02  0  0.1287E-02
   (  1, 31, 15)  (  1,  6, 15)  (  1,  6, 15)  (  1, 26, 10)  (  1, 25, 15)
  0  0.9365E-03  0  0.5823E-03  0  0.3066E-03  1  0.5671E-03  0  0.4875E-03
   (  1, 25, 15)  (  1, 31, 15)  (  1,  6, 15)  (  1, 31, 15)  (  1, 25, 15)
  1  0.4596E-03
   (  1, 28, 15)



 OUTPUT CONTROL FOR STRESS PERIOD    3   TIME STEP    1
    SAVE HEAD FOR ALL LAYERS
    SAVE BUDGET
 UBDSV2 SAVING "   CONSTANT HEAD" ON UNIT  53 AT TIME STEP     1, STRESS PERIOD   3
 UBDSV1 SAVING "FLOW RIGHT FACE " ON UNIT  53 AT TIME STEP     1, STRESS PERIOD   3
 UBDSV1 SAVING "FLOW FRONT FACE " ON UNIT  53 AT TIME STEP     1, STRESS PERIOD   3

 HEAD WILL BE SAVED ON UNIT   51 AT END OF TIME STEP    1, STRESS PERIOD    3
1
  VOLUMETRIC BUDGET FOR ENTIRE MODEL AT END OF TIME STEP    1, STRESS PERIOD   3
  ------------------------------------------------------------------------------

     CUMULATIVE VOLUMES      L**3       RATES FOR THIS TIME STEP      L**3/T
     ------------------                 ------------------------

           IN:                                      IN:
           ---                                      ---
             STORAGE =     2174495.0000               STORAGE =           0.0000
       CONSTANT HEAD =           3.9685         CONSTANT HEAD =           3.9685
               WELLS =     1096200.0000                 WELLS =         600.0000
       RIVER LEAKAGE =      506870.5938         RIVER LEAKAGE =         304.8267
            RECHARGE =     6395471.0000              RECHARGE =        3498.9753

            TOTAL IN =    10173040.0000              TOTAL IN =        4407.7705

          OUT:                                     OUT:
          ----                                     ----
             STORAGE =           0.0000               STORAGE =           0.0000
       CONSTANT HEAD =      527462.7500         CONSTANT HEAD =         174.6256
               WELLS =           0.0000                 WELLS =           0.0000
       RIVER LEAKAGE =     9645666.0000         RIVER LEAKAGE =        4233.1670
            RECHARGE =           0.0000              RECHARGE =           0.0000

           TOTAL OUT =    10173129.0000             TOTAL OUT =        4407.7925

            IN - OUT =         -89.0000              IN - OUT =      -2.1973E-02

 PERCENT DISCREPANCY =          -0.00     PERCENT DISCREPANCY =          -0.00






         TIME SUMMARY AT END OF TIME STEP    1 IN STRESS PERIOD    3
                    SECONDS     MINUTES      HOURS       DAYS        YEARS
                    -----------------------------------------------------------
   TIME STEP LENGTH  86400.      1440.0      24.000      1.0000     2.73785E-03
 STRESS PERIOD TIME  86400.      1440.0      24.000      1.0000     2.73785E-03
         TOTAL TIME 1.57853E+08 2.63088E+06  43848.      1827.0      5.0021    
1

 Run end date and time (yyyy/mm/dd hh:mm:ss): 2018/01/13 17:18:27
 Elapsed run time:  0.046 Seconds

