                                  MODFLOW-NWT-SWR1 
      U.S. GEOLOGICAL SURVEY MODULAR FINITE-DIFFERENCE GROUNDWATER-FLOW MODEL
                            VERSION 1.1.3, 8/01/2017
                    BASED ON MODFLOW-2005 VERSION 1.11.00 08/08/2013

 LIST FILE: freyberg.list
                         UNIT    2

 OPENING freyberg.dis
 FILE TYPE:DIS   UNIT   11   STATUS:OLD    
 FORMAT:FORMATTED              ACCESS:SEQUENTIAL          

 OPENING freyberg.upw
 FILE TYPE:LPF   UNIT   31   STATUS:OLD    
 FORMAT:FORMATTED              ACCESS:SEQUENTIAL          

 OPENING freyberg.bas
 FILE TYPE:BAS6   UNIT   13   STATUS:OLD    
 FORMAT:FORMATTED              ACCESS:SEQUENTIAL          

 OPENING freyberg.rch
 FILE TYPE:RCH   UNIT   19   STATUS:OLD    
 FORMAT:FORMATTED              ACCESS:SEQUENTIAL          

 OPENING freyberg.wel
 FILE TYPE:WEL   UNIT   20   STATUS:OLD    
 FORMAT:FORMATTED              ACCESS:SEQUENTIAL          

 OPENING freyberg.riv
 FILE TYPE:RIV   UNIT   18   STATUS:OLD    
 FORMAT:FORMATTED              ACCESS:SEQUENTIAL          

 OPENING freyberg.oc
 FILE TYPE:OC   UNIT   14   STATUS:OLD    
 FORMAT:FORMATTED              ACCESS:SEQUENTIAL          

 OPENING freyberg.hds
 FILE TYPE:DATA   UNIT   51   STATUS:REPLACE
 FORMAT:FORMATTED              ACCESS:SEQUENTIAL          

 OPENING freyberg.ddn
 FILE TYPE:DATA(BINARY)   UNIT   52   STATUS:REPLACE
 FORMAT:BINARY                 ACCESS:SEQUENTIAL          

 OPENING freyberg.cbc
 FILE TYPE:DATA(BINARY)   UNIT   53   STATUS:REPLACE
 FORMAT:BINARY                 ACCESS:SEQUENTIAL          

 OPENING freyberg.pcg
 FILE TYPE:PCG   UNIT   32   STATUS:OLD    
 FORMAT:FORMATTED              ACCESS:SEQUENTIAL          

 BAS -- BASIC PACKAGE, VERSION 1.1.3, 8/01/2017 INPUT READ FROM UNIT   13
 
 MODFLOW was compiled using mixed precision
 Precision of REAL variables:           6
 Precision of DOUBLE PRECISION variables:          15

 DISCRETIZATION INPUT DATA READ FROM UNIT   11
 # Discretization file for MODFLOW, generated by Flopy.
    1 LAYERS        40 ROWS        20 COLUMNS
    3 STRESS PERIOD(S) IN SIMULATION
 MODEL TIME UNIT IS DAYS
 MODEL LENGTH UNIT IS METERS
  Confining bed flag for each layer:
   0



                               DELR
 READING ON UNIT   11 WITH FORMAT: (20G15.6)           



                               DELC
 READING ON UNIT   11 WITH FORMAT: (40G15.6)           

 TOP ELEVATION OF LAYER 1 =   35.0000    

 OPENING FILE ON UNIT   99:
 botm.ref                                                                                                                                                                                                



             MODEL LAYER BOTTOM EL. FOR LAYER   1
 READING ON UNIT   99 WITH FORMAT: (10E12.4)           


 STRESS PERIOD     LENGTH       TIME STEPS     MULTIPLIER FOR DELT    SS FLAG
 ----------------------------------------------------------------------------
        1         1.000000          1                    1.000         SS
        2         1825.000          1                    1.000         TR
        3         1.000000          1                    1.000         SS

 COMBINED STEADY-STATE AND TRANSIENT SIMULATION



 
 # Basic package file for MODFLOW, generated by Flopy.                           
 THE FREE FORMAT OPTION HAS BEEN SELECTED

 OPENING FILE ON UNIT   99:
 ibound.ref                                                                                                                                                                                              



                     BOUNDARY ARRAY FOR LAYER   1
 READING ON UNIT   99 WITH FORMAT: (25I3)              

 AQUIFER HEAD WILL BE SET TO  -999.99     AT ALL NO-FLOW NODES (IBOUND=0).

 OPENING FILE ON UNIT   99:
 strt.ref                                                                                                                                                                                                



                       INITIAL HEAD FOR LAYER   1
 READING ON UNIT   99 WITH FORMAT: (10E12.4)           
 # Output control package file for MODFLOW, generated by Flopy.

 OUTPUT CONTROL IS SPECIFIED ONLY AT TIME STEPS FOR WHICH OUTPUT IS DESIRED
 HEADS WILL BE SAVED WITH FORMAT: (20E15.6)           
 COMPACT CELL-BY-CELL BUDGET FILES WILL BE WRITTEN
 AUXILIARY DATA WILL BE SAVED IN CELL-BY-CELL BUDGET FILES
 HEAD PRINT FORMAT CODE IS   0    DRAWDOWN PRINT FORMAT CODE IS   0
 HEADS WILL BE SAVED ON UNIT   51    DRAWDOWNS WILL BE SAVED ON UNIT   52

 LPF -- LAYER-PROPERTY FLOW PACKAGE, VERSION 7, 5/2/2005
         INPUT READ FROM UNIT   31
 # UPW for MODFLOW-NWT, generated by Flopy.
 CELL-BY-CELL FLOWS WILL BE SAVED ON UNIT   53
 HEAD AT CELLS THAT CONVERT TO DRY= -1.00000E+30
 No named parameters

   LAYER FLAGS:
 LAYER       LAYTYP        LAYAVG         CHANI        LAYVKA        LAYWET
 ---------------------------------------------------------------------------
    1             1             0     1.000E+00             0             0

   INTERPRETATION OF LAYER FLAGS:
                        INTERBLOCK     HORIZONTAL    DATA IN
         LAYER TYPE   TRANSMISSIVITY   ANISOTROPY   ARRAY VKA   WETTABILITY
 LAYER      (LAYTYP)      (LAYAVG)       (CHANI)      (LAYVKA)      (LAYWET)
 ---------------------------------------------------------------------------
    1   CONVERTIBLE      HARMONIC     1.000E+00    VERTICAL K  NON-WETTABLE

 WETTING CAPABILITY IS NOT ACTIVE IN ANY LAYER

 OPENING FILE ON UNIT   99:
 hk_Layer_1.ref                                                                                                                                                                                          



              HYD. COND. ALONG ROWS FOR LAYER   1
 READING ON UNIT   99 WITH FORMAT: (20G15.6)           

      VERTICAL HYD. COND. =   1.00000     FOR LAYER   1

 OPENING FILE ON UNIT   99:
 ss_Layer_1.ref                                                                                                                                                                                          



                   SPECIFIC STORAGE FOR LAYER   1
 READING ON UNIT   99 WITH FORMAT: (20G15.6)           

           SPECIFIC YIELD =  0.247813     FOR LAYER   1

 WEL -- WELL PACKAGE FOR NWT VERSION 1.1.3,  8/01/2017 INPUT READ FROM UNIT   20
 # Well file for MODFLOW, generated by Flopy.
 No named parameters
 MAXIMUM OF      6 ACTIVE WELLS AT ONE TIME
 No named parameters


     0 Well parameters

 RIV -- RIVER PACKAGE, VERSION 7, 5/2/2005 INPUT READ FROM UNIT   18
 # RIV for MODFLOW, generated by Flopy.
 No named parameters
 MAXIMUM OF     40 ACTIVE RIVER REACHES AT ONE TIME


     0 River parameters

 RCH -- RECHARGE PACKAGE, VERSION 7, 5/2/2005 INPUT READ FROM UNIT   19
 # RCH for MODFLOW, generated by Flopy.
 No named parameters
 OPTION 3 -- RECHARGE TO HIGHEST ACTIVE NODE IN EACH VERTICAL COLUMN


     0 Recharge parameters

 PCG -- CONJUGATE-GRADIENT SOLUTION PACKAGE, VERSION 7, 5/2/2005
 MAXIMUM OF    100 CALLS OF SOLUTION ROUTINE
 MAXIMUM OF     25 INTERNAL ITERATIONS PER CALL TO SOLUTION ROUTINE
 MATRIX PRECONDITIONING TYPE :    1
 IHCOFADD option -- When an active cell is surrounded by dry cells, convert
 the cell to dry only if storage and head-dependent boundary flow are 0.



                                    SOLUTION BY THE CONJUGATE-GRADIENT METHOD
                                   -------------------------------------------
                    MAXIMUM NUMBER OF CALLS TO PCG ROUTINE =      100
                        MAXIMUM ITERATIONS PER CALL TO PCG =       25
                               MATRIX PRECONDITIONING TYPE =        1
        RELAXATION FACTOR (ONLY USED WITH PRECOND. TYPE 1) =    0.10000E+01
 PARAMETER OF POLYNOMIAL PRECOND. = 2 (2) OR IS CALCULATED :        2
                         HEAD CHANGE CRITERION FOR CLOSURE =    0.10000E-04
                     RESIDUAL CHANGE CRITERION FOR CLOSURE =    0.10000E+00
            PCG HEAD AND RESIDUAL CHANGE PRINTOUT INTERVAL =        5
     PRINTING FROM SOLVER IS LIMITED(1) OR SUPPRESSED (>1) =        0
                            STEADY-STATE DAMPING PARAMETER =    0.70000E+00
                               TRANSIENT DAMPING PARAMETER =    0.70000E+00
1
                            STRESS PERIOD NO.    1, LENGTH =   1.000000    
                            -----------------------------------------------

                              NUMBER OF TIME STEPS =     1

                               MULTIPLIER FOR DELT =     1.000

                            INITIAL TIME STEP SIZE =   1.000000    

 WELL NO.  LAYER   ROW   COL   STRESS RATE         
 --------------------------------------------------
      1      1      9     16       100.0    
      2      1     11     13       100.0    
      3      1     20     14       100.0    
      4      1     26     10       100.0    
      5      1     29      6       100.0    
      6      1     34     12       100.0    

      6 WELLS

 REACH NO.  LAYER   ROW   COL     STAGE      CONDUCTANCE     BOTTOM EL.         
 -------------------------------------------------------------------------------
      1      1      1     15       20.10           4705.           20.00    
      2      1      2     15       19.87           3500.           19.75    
      3      1      3     15       19.65           3937.           19.50    
      4      1      4     15       19.42           5273.           19.25    
      5      1      5     15       19.19           5105.           19.00    
      6      1      6     15       18.97           4603.           18.75    
      7      1      7     15       18.74           511.9           18.50    
      8      1      8     15       18.51           680.1           18.25    
      9      1      9     15       18.28           7737.           18.00    
     10      1     10     15       19.06           6224.           17.75    
     11      1     11     15       17.83           7142.           17.50    
     12      1     12     15       17.60          0.1131E+05       17.25    
     13      1     13     15       17.38           2319.           17.00    
     14      1     14     15       17.15           919.5           16.75    
     15      1     15     15       16.92           5219.           16.50    
     16      1     16     15       16.70          0.1881E+05       16.25    
     17      1     17     15       16.47          0.2460E+05       16.00    
     18      1     18     15       16.24          0.3328E+05       15.75    
     19      1     19     15       16.02           2812.           15.50    
     20      1     20     15       15.79          0.2706E+05       15.25    
     21      1     21     15       15.56           3397.           15.00    
     22      1     22     15       15.33           6815.           14.75    
     23      1     23     15       15.11           906.9           14.50    
     24      1     24     15       14.88           9602.           14.25    
     25      1     25     15       14.65           4864.           14.00    
     26      1     26     15       14.43          0.1044E+05       13.75    
     27      1     27     15       14.20           5908.           13.50    
     28      1     28     15       13.97           8147.           13.25    
     29      1     29     15       13.75           8882.           13.00    
     30      1     30     15       13.52           3699.           12.75    
     31      1     31     15       13.29          0.1709E+05       12.50    
     32      1     32     15       13.07           3830.           12.25    
     33      1     33     15       12.84           7630.           12.00    
     34      1     34     15       12.61           1312.           11.75    
     35      1     35     15       12.38           1616.           11.50    
     36      1     36     15       12.16           1867.           11.25    
     37      1     37     15       11.93          0.2556E+05       11.00    
     38      1     38     15       11.70           2640.           10.75    
     39      1     39     15       11.48           3135.           10.50    
     40      1     40     15       11.25           4749.           10.25    

     40 RIVER REACHES

 OPENING FILE ON UNIT   99:
 rech_0.ref                                                                                                                                                                                              



                           RECHARGE
 READING ON UNIT   99 WITH FORMAT: (20G15.6)           
 
 SOLVING FOR HEAD 


    15 CALLS TO PCG ROUTINE FOR TIME STEP     1 IN STRESS PERIOD    1
   197 TOTAL ITERATIONS

 MAXIMUM HEAD CHANGE FOR EACH ITERATION (1 INDICATES THE FIRST INNER ITERATION):

    HEAD CHANGE    HEAD CHANGE    HEAD CHANGE    HEAD CHANGE    HEAD CHANGE 
   LAYER,ROW,COL  LAYER,ROW,COL  LAYER,ROW,COL  LAYER,ROW,COL  LAYER,ROW,COL
 ---------------------------------------------------------------------------
  1  -55.42      0  -34.60      0   16.78      0   8.454      0  -5.290    
   (  1, 39, 11)  (  1,  9,  4)  (  1, 31,  1)  (  1, 23,  5)  (  1, 32,  1)
  0  -2.310      0 -0.9372      0 -0.4354      0 -0.3142      0  0.1481    
   (  1, 27,  5)  (  1, 25, 10)  (  1, 30,  3)  (  1,  7,  4)  (  1,  8,  4)
  0 -0.1112      0  0.6577E-01  0 -0.2575E-01  0  0.1414E-01  0  0.5850E-02
   (  1,  9,  4)  (  1,  9,  2)  (  1, 11,  2)  (  1, 29,  4)  (  1, 32,  1)
  0  0.3852E-02  0  0.1102E-02  0 -0.4366E-03  0  0.2889E-03  0 -0.1807E-03
   (  1, 17,  4)  (  1, 33,  2)  (  1, 13,  1)  (  1,  9,  4)  (  1,  9,  4)
  0 -0.1021E-03  0  0.5465E-04  0  0.3200E-04  0  0.8806E-05  1  -14.64    
   (  1, 11,  2)  (  1, 26,  9)  (  1, 11,  3)  (  1, 34,  3)  (  1, 39, 11)
  0  -13.61      0  -5.928      0   3.048      0  -1.611      0 -0.6187    
   (  1,  9,  4)  (  1,  8,  5)  (  1, 39, 11)  (  1, 32,  1)  (  1, 27,  5)
  0 -0.3143      0  0.1143      0 -0.1196      0  0.5378E-01  0 -0.3707E-01
   (  1, 15,  1)  (  1,  4,  1)  (  1,  8,  4)  (  1,  9,  4)  (  1,  9,  4)
  0 -0.1608E-01  0 -0.7307E-02  0  0.4176E-02  0  0.1361E-02  0  0.8395E-03
   (  1, 33,  2)  (  1, 30,  4)  (  1, 29,  4)  (  1, 33,  2)  (  1, 31,  3)
  0 -0.2249E-03  0 -0.2939E-03  0  0.9984E-04  0  0.6445E-04  0 -0.2320E-04
   (  1,  5,  7)  (  1,  9,  4)  (  1,  5,  6)  (  1, 13,  2)  (  1, 11,  2)
  0  0.1556E-04  0  0.8151E-05  1   12.85      0  -9.091      0  -4.125    
   (  1, 28, 10)  (  1, 11,  3)  (  1,  9,  4)  (  1,  9,  4)  (  1,  8,  5)
  0  -1.322      0 -0.7803      0 -0.3331      0  0.9421E-01  0  0.5570E-01
   (  1, 28,  2)  (  1, 32,  1)  (  1, 32,  1)  (  1, 37, 13)  (  1,  8,  4)
  0 -0.5231E-01  0 -0.1814E-01  0 -0.1017E-01  0 -0.9807E-02  0 -0.3064E-02
   (  1,  8,  4)  (  1, 24,  1)  (  1,  9,  4)  (  1, 33,  2)  (  1, 31,  6)
  0  0.1013E-02  0  0.8829E-03  0 -0.2406E-03  0  0.1310E-03  0  0.6136E-04
   (  1, 36, 10)  (  1, 11,  2)  (  1, 11,  2)  (  1, 17,  4)  (  1, 33,  2)
  0  0.4798E-04  0 -0.2721E-04  0 -0.9662E-05  1   2.790      0  -2.068    
   (  1,  9,  4)  (  1, 10,  2)  (  1, 27,  3)  (  1,  9,  4)  (  1,  9,  4)
  0  -1.200      0 -0.5368      0 -0.3672      0 -0.1439      0 -0.4603E-01
   (  1,  8,  5)  (  1, 27,  2)  (  1, 32,  1)  (  1, 32,  1)  (  1, 30,  5)
  0  0.2159E-01  0 -0.2069E-01  0 -0.7258E-02  0  0.3277E-02  0 -0.3896E-02
   (  1,  4,  1)  (  1,  8,  4)  (  1, 27,  3)  (  1,  9,  1)  (  1,  9,  4)
  0 -0.1604E-02  0  0.3551E-03  0  0.2487E-03  0  0.1065E-03  0 -0.4150E-04
   (  1, 31,  6)  (  1, 36, 10)  (  1, 11,  2)  (  1, 29,  2)  (  1, 28,  1)
  0 -0.2354E-04  0  0.2345E-04  0 -0.8359E-05  1  0.6057      0  0.4941    
   (  1,  9,  4)  (  1,  9,  4)  (  1, 12,  2)  (  1, 26, 10)  (  1,  9,  4)
  0 -0.3268      0 -0.1658      0 -0.1620      0 -0.3657E-01  0 -0.1696E-01
   (  1, 26,  9)  (  1, 27,  2)  (  1, 32,  1)  (  1, 28,  6)  (  1, 35,  4)
  0 -0.6625E-02  0 -0.4025E-02  0 -0.2767E-02  0 -0.7555E-03  0  0.1321E-02
   (  1, 37,  5)  (  1, 32,  5)  (  1, 33,  2)  (  1,  9,  4)  (  1,  9,  4)
  0 -0.5092E-03  0  0.1552E-03  0  0.8636E-04  0  0.4166E-04  0  0.1558E-04
   (  1, 32,  7)  (  1, 15,  1)  (  1, 20,  9)  (  1, 29,  2)  (  1, 17,  4)
  0  0.7250E-05  1 -0.2228      0  0.2655      0 -0.1112      0 -0.5088E-01
   (  1, 33,  6)  (  1,  9,  4)  (  1,  9,  4)  (  1, 26, 10)  (  1, 28,  4)
  0 -0.3825E-01  0  0.1648E-01  0 -0.6313E-02  0 -0.2401E-02  0 -0.1395E-02
   (  1, 31,  1)  (  1,  8,  4)  (  1, 29,  6)  (  1, 32,  5)  (  1, 27,  7)
  0 -0.8480E-03  0 -0.4366E-03  0  0.4584E-03  0 -0.2121E-03  0  0.6475E-04
   (  1, 34,  5)  (  1,  9,  4)  (  1, 11,  2)  (  1, 31,  7)  (  1, 15,  1)
  0  0.3308E-04  0  0.1243E-04  0  0.5848E-05  1 -0.8696E-01  0  0.8700E-01
   (  1, 20,  9)  (  1, 29,  2)  (  1, 16,  4)  (  1,  9,  4)  (  1,  9,  4)
  0 -0.3378E-01  0 -0.1563E-01  0 -0.1239E-01  0 -0.7043E-02  0 -0.1991E-02
   (  1, 26, 11)  (  1, 27,  4)  (  1,  8,  5)  (  1, 31,  1)  (  1, 29,  7)
  0 -0.1189E-02  0  0.3828E-03  0 -0.2719E-03  0  0.1245E-03  0 -0.1059E-03
   (  1,  9,  4)  (  1,  9,  4)  (  1, 36,  5)  (  1,  9,  2)  (  1, 33,  2)
  0 -0.5701E-04  0  0.2433E-04  0  0.9814E-05  1 -0.2097E-01  0  0.2306E-01
   (  1, 31,  7)  (  1, 14,  1)  (  1, 19,  9)  (  1,  9,  4)  (  1,  9,  4)
  0  0.1018E-01  0 -0.5093E-02  0 -0.3523E-02  0 -0.2300E-02  0 -0.5807E-03
   (  1,  8,  5)  (  1, 23, 12)  (  1,  8,  5)  (  1, 30,  1)  (  1, 29,  7)
  0 -0.4135E-03  0  0.1342E-03  0 -0.8698E-04  0  0.4823E-04  0 -0.2933E-04
   (  1,  9,  4)  (  1, 32,  1)  (  1, 37,  5)  (  1, 11,  2)  (  1,  9,  4)
  0 -0.1108E-04  0  0.7940E-05  1  0.5835E-02  0 -0.3602E-02  0 -0.1618E-02
   (  1, 31,  7)  (  1, 14,  1)  (  1, 29, 14)  (  1, 26, 12)  (  1, 23, 12)
  0 -0.2193E-02  0 -0.9926E-03  0 -0.6697E-03  0 -0.1601E-03  0 -0.1301E-03
   (  1,  9,  4)  (  1,  8,  5)  (  1, 29,  1)  (  1, 30,  8)  (  1,  8,  4)
  0  0.4694E-04  0 -0.2554E-04  0 -0.7990E-05  1  0.1872E-02  0 -0.1521E-02
   (  1,  8,  4)  (  1, 37,  5)  (  1, 35,  8)  (  1, 29, 14)  (  1,  9,  4)
  0  0.1120E-02  0 -0.4888E-03  0 -0.2625E-03  0 -0.1615E-03  0 -0.4225E-04
   (  1,  9,  4)  (  1, 23, 12)  (  1, 28, 10)  (  1, 28,  1)  (  1, 33,  2)
  0 -0.3681E-04  0  0.1810E-04  0 -0.6898E-05  1  0.5803E-03  0 -0.6466E-03
   (  1,  8,  4)  (  1,  8,  4)  (  1, 37,  5)  (  1, 29, 14)  (  1,  9,  4)
  0 -0.2722E-03  0 -0.1556E-03  0 -0.8764E-04  0 -0.2628E-04  0 -0.1222E-04
   (  1, 25, 12)  (  1, 27,  6)  (  1, 29,  1)  (  1, 32,  1)  (  1, 20,  4)
  0 -0.6686E-05  1  0.2529E-03  0 -0.2343E-03  0 -0.7957E-04  0 -0.4846E-04
   (  1, 34,  8)  (  1,  9,  4)  (  1,  9,  4)  (  1, 24, 12)  (  1, 27,  7)
  0 -0.3066E-04  0 -0.7225E-05  1  0.8564E-04  0 -0.7449E-04  0  0.2356E-04
   (  1, 29,  2)  (  1, 32,  1)  (  1,  9,  4)  (  1,  9,  4)  (  1, 29,  7)
  0 -0.1719E-04  0 -0.7111E-05  1  0.2237E-04  0 -0.2497E-04  0 -0.1085E-04
   (  1, 29, 14)  (  1, 28,  9)  (  1, 11,  2)  (  1,  9,  4)  (  1,  8,  5)
  0 -0.7115E-05  1  0.7271E-05
   (  1, 17, 10)  (  1, 27,  6)

 MAXIMUM RESIDUAL FOR EACH ITERATION (1 INDICATES THE FIRST INNER ITERATION):

    RESIDUAL       RESIDUAL       RESIDUAL       RESIDUAL       RESIDUAL    
   LAYER,ROW,COL  LAYER,ROW,COL  LAYER,ROW,COL  LAYER,ROW,COL  LAYER,ROW,COL
 ---------------------------------------------------------------------------
  1  0.1026E+05  0   7068.      0  -2929.      0  -1755.      0  -763.5    
   (  1, 18, 15)  (  1, 18, 15)  (  1, 39, 10)  (  1, 39,  7)  (  1, 39,  7)
  0  -505.7      0  -361.5      0  -229.7      0  -144.2      0  -86.23    
   (  1, 39, 15)  (  1, 39, 15)  (  1, 39, 15)  (  1, 39, 15)  (  1, 39, 15)
  0  -47.27      0  -33.92      0  -14.57      0  -6.193      0  -2.627    
   (  1, 39, 15)  (  1, 39, 15)  (  1, 39, 15)  (  1, 39, 15)  (  1, 39, 15)
  0 -0.9413      0 -0.2870      0 -0.9228E-01  0 -0.7572E-01  0 -0.4829E-01
   (  1, 39, 15)  (  1, 39, 15)  (  1, 39, 15)  (  1, 38, 15)  (  1, 37, 15)
  0 -0.3376E-01  0 -0.2138E-01  0 -0.1064E-01  0 -0.4429E-02  1   2474.    
   (  1, 37, 15)  (  1, 37, 15)  (  1, 37, 15)  (  1, 37, 15)  (  1, 18, 15)
  0   1544.      0  -745.3      0  -356.7      0  -180.0      0  -115.3    
   (  1, 18, 15)  (  1, 39, 10)  (  1, 39,  7)  (  1, 39,  7)  (  1, 39, 15)
  0  -81.27      0  -56.50      0  -37.88      0  -24.03      0  -19.59    
   (  1, 39, 15)  (  1, 39, 15)  (  1, 39, 15)  (  1, 39, 15)  (  1, 39, 15)
  0  -9.166      0  -4.280      0  -1.947      0 -0.8274      0 -0.3030    
   (  1, 39, 15)  (  1, 39, 15)  (  1, 39, 15)  (  1, 39, 15)  (  1, 39, 15)
  0 -0.1184      0 -0.9292E-01  0 -0.3619E-01  0 -0.1253E-01  0 -0.7274E-02
   (  1, 39, 15)  (  1, 39, 15)  (  1, 39, 15)  (  1, 39, 15)  (  1, 38, 15)
  0 -0.3765E-02  0 -0.1539E-02  1   1707.      0   624.7      0   228.2    
   (  1, 38, 15)  (  1, 37, 15)  (  1, 18, 15)  (  1, 18, 15)  (  1, 18, 15)
  0   98.32      0  -43.88      0  -28.27      0  -19.45      0  -14.51    
   (  1, 37, 15)  (  1, 39,  7)  (  1, 39, 15)  (  1, 39, 15)  (  1, 39, 15)
  0  -9.327      0  -5.381      0  -4.762      0  -2.676      0  -1.407    
   (  1, 39, 15)  (  1, 39, 15)  (  1, 39, 15)  (  1, 39, 15)  (  1, 39, 15)
  0 -0.6658      0 -0.3071      0 -0.1366      0 -0.5565E-01  0 -0.2425E-01
   (  1, 39, 15)  (  1, 39, 15)  (  1, 39, 15)  (  1, 39, 15)  (  1, 39, 15)
  0 -0.1970E-01  0 -0.7529E-02  0 -0.4797E-02  1   422.4      0   227.7    
   (  1, 39, 15)  (  1, 39, 15)  (  1, 39, 15)  (  1, 18, 15)  (  1, 18, 15)
  0   97.56      0   40.62      0   17.44      0   8.689      0  -5.397    
   (  1, 18, 15)  (  1, 37, 15)  (  1, 37, 15)  (  1, 37, 15)  (  1, 39, 15)
  0  -3.973      0  -2.698      0  -1.619      0  -1.252      0 -0.8714    
   (  1, 39, 15)  (  1, 39, 15)  (  1, 39, 15)  (  1, 39, 15)  (  1, 39, 15)
  0 -0.4686      0 -0.2387      0 -0.1109      0 -0.5813E-01  0 -0.2584E-01
   (  1, 39, 15)  (  1, 39, 15)  (  1, 39, 15)  (  1, 39, 15)  (  1, 39, 15)
  0 -0.1293E-01  0 -0.9696E-02  0 -0.3568E-02  1   171.5      0   99.35    
   (  1, 39, 15)  (  1, 39, 15)  (  1, 39, 15)  (  1, 18, 15)  (  1, 18, 15)
  0   39.59      0   15.79      0   5.178      0   2.994      0  -1.569    
   (  1, 18, 15)  (  1, 18, 15)  (  1, 37, 15)  (  1, 37, 15)  (  1, 39, 15)
  0  -1.024      0 -0.6438      0 -0.4141      0 -0.3639      0 -0.2564    
   (  1, 39, 15)  (  1, 39, 15)  (  1, 39, 15)  (  1, 39, 15)  (  1, 39, 15)
  0 -0.1544      0 -0.8087E-01  0 -0.3704E-01  0 -0.2057E-01  0 -0.9302E-02
   (  1, 39, 15)  (  1, 39, 15)  (  1, 39, 15)  (  1, 39, 15)  (  1, 39, 15)
  0 -0.4161E-02  1   91.50      0   42.66      0   16.24      0   6.225    
   (  1, 39, 15)  (  1, 18, 15)  (  1, 18, 15)  (  1, 18, 15)  (  1, 18, 15)
  0   1.957      0   1.008      0 -0.4815      0 -0.3527      0 -0.2554    
   (  1, 37, 15)  (  1, 37, 15)  (  1, 39, 15)  (  1, 39, 15)  (  1, 39, 15)
  0 -0.1509      0 -0.1336      0 -0.8788E-01  0 -0.5014E-01  0 -0.2675E-01
   (  1, 39, 15)  (  1, 39, 15)  (  1, 39, 15)  (  1, 39, 15)  (  1, 39, 15)
  0 -0.1204E-01  0 -0.6353E-02  0 -0.2956E-02  1   32.91      0   16.77    
   (  1, 39, 15)  (  1, 39, 15)  (  1, 39, 15)  (  1, 18, 15)  (  1, 18, 15)
  0   6.444      0   2.347      0  0.7894      0  0.3490      0  0.1581    
   (  1, 18, 15)  (  1, 18, 15)  (  1, 37, 15)  (  1, 37, 15)  (  1, 18, 15)
  0 -0.1160      0 -0.8007E-01  0 -0.4578E-01  0 -0.4053E-01  0 -0.2631E-01
   (  1, 39, 15)  (  1, 39, 15)  (  1, 39, 15)  (  1, 39, 15)  (  1, 39, 15)
  0 -0.1540E-01  0 -0.8379E-02  0 -0.3798E-02  1   9.298      0   5.580    
   (  1, 39, 15)  (  1, 39, 15)  (  1, 39, 15)  (  1, 18, 15)  (  1, 18, 15)
  0   2.357      0  0.8137      0  0.2824      0  0.1125      0  0.5223E-01
   (  1, 18, 15)  (  1, 18, 15)  (  1, 18, 15)  (  1, 18, 15)  (  1, 18, 15)
  0 -0.3562E-01  0 -0.2464E-01  0 -0.1383E-01  0 -0.9248E-02  0 -0.7684E-02
   (  1, 39, 15)  (  1, 39, 15)  (  1, 39, 15)  (  1, 39, 15)  (  1, 39, 15)
  0 -0.4458E-02  0 -0.2417E-02  1   2.660      0  0.9902      0  0.4443    
   (  1, 39, 15)  (  1, 39, 15)  (  1, 18, 15)  (  1, 18, 15)  (  1, 18, 15)
  0  0.2568      0  0.9073E-01  0  0.3696E-01  0  0.1619E-01  0 -0.1064E-01
   (  1, 18, 15)  (  1, 18, 15)  (  1, 18, 15)  (  1, 18, 15)  (  1, 39, 15)
  0 -0.7482E-02  0 -0.4198E-02  0 -0.2405E-02  1  0.9105      0  0.5954    
   (  1, 39, 15)  (  1, 39, 15)  (  1, 39, 15)  (  1, 18, 15)  (  1, 18, 15)
  0  0.2615      0  0.8023E-01  0  0.2543E-01  0  0.1166E-01  0  0.4796E-02
   (  1, 18, 15)  (  1, 18, 15)  (  1, 18, 15)  (  1, 18, 15)  (  1, 18, 15)
  0 -0.3046E-02  0 -0.2237E-02  0 -0.1277E-02  1  0.3285      0  0.1930    
   (  1, 39, 15)  (  1, 39, 15)  (  1, 39, 15)  (  1, 18, 15)  (  1, 18, 15)
  0  0.8053E-01  0  0.2385E-01  0  0.5990E-02  0  0.3027E-02  0  0.1404E-02
   (  1, 18, 15)  (  1, 18, 15)  (  1, 18, 15)  (  1, 18, 15)  (  1, 18, 15)
  0 -0.8183E-03  1  0.1135      0  0.6087E-01  0  0.2454E-01  0  0.7344E-02
   (  1, 39, 15)  (  1, 18, 15)  (  1, 18, 15)  (  1, 18, 15)  (  1, 18, 15)
  0  0.1990E-02  0  0.9799E-03  1  0.3877E-01  0  0.2181E-01  0  0.1081E-01
   (  1, 18, 15)  (  1, 18, 15)  (  1, 18, 15)  (  1, 18, 15)  (  1, 18, 15)
  0  0.2571E-02  0  0.1020E-02  1  0.1924E-01  0  0.1060E-01  0  0.4666E-02
   (  1, 18, 15)  (  1, 18, 15)  (  1, 18, 15)  (  1, 18, 15)  (  1, 18, 15)
  0  0.8398E-03  1  0.1415E-01
   (  1, 18, 15)  (  1, 18, 15)



 OUTPUT CONTROL FOR STRESS PERIOD    1   TIME STEP    1
    SAVE HEAD FOR ALL LAYERS
    SAVE BUDGET
 UBDSV2 SAVING "   CONSTANT HEAD" ON UNIT  53 AT TIME STEP     1, STRESS PERIOD   1
 UBDSV1 SAVING "FLOW RIGHT FACE " ON UNIT  53 AT TIME STEP     1, STRESS PERIOD   1
 UBDSV1 SAVING "FLOW FRONT FACE " ON UNIT  53 AT TIME STEP     1, STRESS PERIOD   1

 HEAD WILL BE SAVED ON UNIT   51 AT END OF TIME STEP    1, STRESS PERIOD    1
1
  VOLUMETRIC BUDGET FOR ENTIRE MODEL AT END OF TIME STEP    1, STRESS PERIOD   1
  ------------------------------------------------------------------------------

     CUMULATIVE VOLUMES      L**3       RATES FOR THIS TIME STEP      L**3/T
     ------------------                 ------------------------

           IN:                                      IN:
           ---                                      ---
             STORAGE =           0.0000               STORAGE =           0.0000
       CONSTANT HEAD =           0.0000         CONSTANT HEAD =           0.0000
               WELLS =         600.0000                 WELLS =         600.0000
       RIVER LEAKAGE =         207.6487         RIVER LEAKAGE =         207.6487
            RECHARGE =        5972.9805              RECHARGE =        5972.9805

            TOTAL IN =        6780.6294              TOTAL IN =        6780.6294

          OUT:                                     OUT:
          ----                                     ----
             STORAGE =           0.0000               STORAGE =           0.0000
       CONSTANT HEAD =         510.1024         CONSTANT HEAD =         510.1024
               WELLS =           0.0000                 WELLS =           0.0000
       RIVER LEAKAGE =        6270.7896         RIVER LEAKAGE =        6270.7896
            RECHARGE =           0.0000              RECHARGE =           0.0000

           TOTAL OUT =        6780.8921             TOTAL OUT =        6780.8921

            IN - OUT =          -0.2627              IN - OUT =          -0.2627

 PERCENT DISCREPANCY =          -0.00     PERCENT DISCREPANCY =          -0.00






         TIME SUMMARY AT END OF TIME STEP    1 IN STRESS PERIOD    1
                    SECONDS     MINUTES      HOURS       DAYS        YEARS
                    -----------------------------------------------------------
   TIME STEP LENGTH  86400.      1440.0      24.000      1.0000     2.73785E-03
 STRESS PERIOD TIME  86400.      1440.0      24.000      1.0000     2.73785E-03
         TOTAL TIME  86400.      1440.0      24.000      1.0000     2.73785E-03
1
1
                            STRESS PERIOD NO.    2, LENGTH =   1825.000    
                            -----------------------------------------------

                              NUMBER OF TIME STEPS =     1

                               MULTIPLIER FOR DELT =     1.000

                            INITIAL TIME STEP SIZE =   1825.000    

 WELL NO.  LAYER   ROW   COL   STRESS RATE         
 --------------------------------------------------
      1      1      9     16       100.0    
      2      1     11     13       100.0    
      3      1     20     14       100.0    
      4      1     26     10       100.0    
      5      1     29      6       100.0    
      6      1     34     12       100.0    

      6 WELLS

 REUSING NON-PARAMETER RIVER REACHES FROM LAST STRESS PERIOD

     40 RIVER REACHES

 OPENING FILE ON UNIT   99:
 rech_1.ref                                                                                                                                                                                              



                           RECHARGE
 READING ON UNIT   99 WITH FORMAT: (20G15.6)           
 
 SOLVING FOR HEAD 


    10 CALLS TO PCG ROUTINE FOR TIME STEP     1 IN STRESS PERIOD    2
    51 TOTAL ITERATIONS

 MAXIMUM HEAD CHANGE FOR EACH ITERATION (1 INDICATES THE FIRST INNER ITERATION):

    HEAD CHANGE    HEAD CHANGE    HEAD CHANGE    HEAD CHANGE    HEAD CHANGE 
   LAYER,ROW,COL  LAYER,ROW,COL  LAYER,ROW,COL  LAYER,ROW,COL  LAYER,ROW,COL
 ---------------------------------------------------------------------------
  1 -0.2592      0  0.4142E-01  0  0.1130E-01  0  0.2822E-02  0 -0.5905E-03
   (  1,  9,  4)  (  1, 38, 13)  (  1, 11,  9)  (  1, 13,  9)  (  1, 38, 14)
  0 -0.1984E-03  0  0.8466E-04  0  0.2329E-04  0 -0.7610E-05  1 -0.6887E-01
   (  1, 25,  3)  (  1, 35,  4)  (  1, 37,  5)  (  1,  8,  5)  (  1, 23,  9)
  0  0.1133E-01  0  0.3421E-02  0  0.9782E-03  0 -0.3983E-03  0 -0.9762E-04
   (  1, 38, 13)  (  1, 11,  9)  (  1, 12,  9)  (  1,  9,  4)  (  1,  8,  5)
  0  0.2811E-04  0  0.6973E-05  1 -0.2011E-01  0 -0.3057E-02  0  0.1066E-02
   (  1, 35,  4)  (  1, 37,  5)  (  1,  8, 10)  (  1,  8,  5)  (  1, 11, 10)
  0  0.3486E-03  0 -0.1458E-03  0 -0.3055E-04  0  0.8942E-05  1 -0.6074E-02
   (  1, 12,  9)  (  1,  9,  4)  (  1,  8,  5)  (  1, 35,  4)  (  1,  8, 10)
  0 -0.1078E-02  0 -0.4185E-03  0 -0.1125E-03  0 -0.4633E-04  0 -0.8710E-05
   (  1,  8,  5)  (  1,  9,  4)  (  1,  8,  5)  (  1,  9,  4)  (  1,  8,  5)
  1 -0.1798E-02  0 -0.3485E-03  0 -0.1487E-03  0 -0.3743E-04  0 -0.1373E-04
   (  1,  5, 10)  (  1,  8,  5)  (  1,  9,  4)  (  1,  8,  5)  (  1,  9,  4)
  0  0.2680E-05  1 -0.5277E-03  0 -0.1101E-03  0 -0.4807E-04  0 -0.1179E-04
   (  1, 14,  9)  (  1,  4, 10)  (  1, 26,  9)  (  1,  9,  4)  (  1,  8,  5)
  0 -0.3872E-05  1 -0.1591E-03  0 -0.3611E-04  0 -0.1446E-04  0 -0.3630E-05
   (  1,  9,  4)  (  1, 29, 14)  (  1, 26,  9)  (  1,  9,  4)  (  1,  8,  5)
  1 -0.4901E-04  0 -0.1131E-04  0 -0.4910E-05  1 -0.1507E-04  0 -0.3360E-05
   (  1, 29, 14)  (  1, 26,  9)  (  1,  9,  4)  (  1, 29, 14)  (  1, 26, 10)
  1 -0.3938E-05
   (  1,  5, 11)

 MAXIMUM RESIDUAL FOR EACH ITERATION (1 INDICATES THE FIRST INNER ITERATION):

    RESIDUAL       RESIDUAL       RESIDUAL       RESIDUAL       RESIDUAL    
   LAYER,ROW,COL  LAYER,ROW,COL  LAYER,ROW,COL  LAYER,ROW,COL  LAYER,ROW,COL
 ---------------------------------------------------------------------------
  1   7.804      0   2.492      0  0.4717      0  0.1314      0  0.4715E-01
   (  1,  6, 15)  (  1,  6, 15)  (  1,  9, 15)  (  1,  9, 15)  (  1, 24,  3)
  0  0.1984E-01  0  0.5444E-02  0  0.1564E-02  0  0.4417E-03  1   2.671    
   (  1, 22, 15)  (  1, 20, 15)  (  1, 20, 15)  (  1, 20, 15)  (  1,  6, 15)
  0  0.8040      0  0.1549      0  0.4645E-01  0  0.1676E-01  0  0.6542E-02
   (  1,  6, 15)  (  1,  3, 15)  (  1,  9, 15)  (  1, 22, 15)  (  1, 22, 15)
  0  0.1790E-02  0  0.5952E-03  1  0.8975      0  0.2843      0  0.5508E-01
   (  1, 22, 15)  (  1, 20, 15)  (  1,  6, 15)  (  1,  6, 15)  (  1,  3, 15)
  0  0.1693E-01  0  0.5814E-02  0  0.2175E-02  0  0.6144E-03  1  0.2969    
   (  1,  9, 15)  (  1,  9, 15)  (  1, 22, 15)  (  1, 22, 15)  (  1,  6, 15)
  0  0.9989E-01  0  0.1931E-01  0  0.5931E-02  0  0.1985E-02  0  0.7141E-03
   (  1,  6, 15)  (  1,  4, 15)  (  1,  9, 15)  (  1,  9, 15)  (  1, 22, 15)
  1  0.9702E-01  0  0.3405E-01  0  0.6872E-02  0  0.2082E-02  0  0.6802E-03
   (  1,  6, 15)  (  1,  6, 15)  (  1,  4, 15)  (  1,  3, 15)  (  1,  3, 15)
  0  0.2293E-03  1  0.3137E-01  0  0.1130E-01  0  0.2360E-02  0  0.7118E-03
   (  1, 22, 15)  (  1,  6, 15)  (  1,  6, 15)  (  1,  4, 15)  (  1,  3, 15)
  0  0.2283E-03  1  0.1008E-01  0  0.3677E-02  0  0.7732E-03  0  0.2342E-03
   (  1,  3, 15)  (  1,  6, 15)  (  1,  6, 15)  (  1,  4, 15)  (  1,  4, 15)
  1  0.3247E-02  0  0.1190E-02  0  0.2693E-03  1  0.1083E-02  0  0.3592E-03
   (  1,  6, 15)  (  1,  6, 15)  (  1,  5, 15)  (  1,  6, 15)  (  1,  6, 15)
  1  0.3935E-03
   (  1,  6, 15)



 OUTPUT CONTROL FOR STRESS PERIOD    2   TIME STEP    1
    SAVE HEAD FOR ALL LAYERS
    SAVE BUDGET
 UBDSV1 SAVING "         STORAGE" ON UNIT  53 AT TIME STEP     1, STRESS PERIOD   2
 UBDSV2 SAVING "   CONSTANT HEAD" ON UNIT  53 AT TIME STEP     1, STRESS PERIOD   2
 UBDSV1 SAVING "FLOW RIGHT FACE " ON UNIT  53 AT TIME STEP     1, STRESS PERIOD   2
 UBDSV1 SAVING "FLOW FRONT FACE " ON UNIT  53 AT TIME STEP     1, STRESS PERIOD   2

 HEAD WILL BE SAVED ON UNIT   51 AT END OF TIME STEP    1, STRESS PERIOD    2
1
  VOLUMETRIC BUDGET FOR ENTIRE MODEL AT END OF TIME STEP    1, STRESS PERIOD   2
  ------------------------------------------------------------------------------

     CUMULATIVE VOLUMES      L**3       RATES FOR THIS TIME STEP      L**3/T
     ------------------                 ------------------------

           IN:                                      IN:
           ---                                      ---
             STORAGE =     2709687.7500               STORAGE =        1484.7604
       CONSTANT HEAD =           0.0000         CONSTANT HEAD =           0.0000
               WELLS =     1095600.0000                 WELLS =         600.0000
       RIVER LEAKAGE =      424519.1250         RIVER LEAKAGE =         232.4994
            RECHARGE =     6508885.5000              RECHARGE =        3563.2397

            TOTAL IN =    10738692.0000              TOTAL IN =        5880.4995

          OUT:                                     OUT:
          ----                                     ----
             STORAGE =           0.0000               STORAGE =           0.0000
       CONSTANT HEAD =      790672.3750         CONSTANT HEAD =         432.9656
               WELLS =           0.0000                 WELLS =           0.0000
       RIVER LEAKAGE =     9948080.0000         RIVER LEAKAGE =        5447.5664
            RECHARGE =           0.0000              RECHARGE =           0.0000

           TOTAL OUT =    10738752.0000             TOTAL OUT =        5880.5322

            IN - OUT =         -60.0000              IN - OUT =      -3.2715E-02

 PERCENT DISCREPANCY =          -0.00     PERCENT DISCREPANCY =          -0.00






         TIME SUMMARY AT END OF TIME STEP    1 IN STRESS PERIOD    2
                    SECONDS     MINUTES      HOURS       DAYS        YEARS
                    -----------------------------------------------------------
   TIME STEP LENGTH 1.57680E+08 2.62800E+06  43800.      1825.0      4.9966    
 STRESS PERIOD TIME 1.57680E+08 2.62800E+06  43800.      1825.0      4.9966    
         TOTAL TIME 1.57766E+08 2.62944E+06  43824.      1826.0      4.9993    
1
1
                            STRESS PERIOD NO.    3, LENGTH =   1.000000    
                            -----------------------------------------------

                              NUMBER OF TIME STEPS =     1

                               MULTIPLIER FOR DELT =     1.000

                            INITIAL TIME STEP SIZE =   1.000000    

 WELL NO.  LAYER   ROW   COL   STRESS RATE         
 --------------------------------------------------
      1      1      9     16       100.0    
      2      1     11     13       100.0    
      3      1     20     14       100.0    
      4      1     26     10       100.0    
      5      1     29      6       100.0    
      6      1     34     12       100.0    

      6 WELLS

 REUSING NON-PARAMETER RIVER REACHES FROM LAST STRESS PERIOD

     40 RIVER REACHES

 OPENING FILE ON UNIT   99:
 rech_2.ref                                                                                                                                                                                              



                           RECHARGE
 READING ON UNIT   99 WITH FORMAT: (20G15.6)           
 
 SOLVING FOR HEAD 


    11 CALLS TO PCG ROUTINE FOR TIME STEP     1 IN STRESS PERIOD    3
   112 TOTAL ITERATIONS

 MAXIMUM HEAD CHANGE FOR EACH ITERATION (1 INDICATES THE FIRST INNER ITERATION):

    HEAD CHANGE    HEAD CHANGE    HEAD CHANGE    HEAD CHANGE    HEAD CHANGE 
   LAYER,ROW,COL  LAYER,ROW,COL  LAYER,ROW,COL  LAYER,ROW,COL  LAYER,ROW,COL
 ---------------------------------------------------------------------------
  1  -1.790      0  -1.595      0  -1.215      0 -0.3635      0 -0.2096    
   (  1,  9,  4)  (  1,  8,  5)  (  1, 31,  1)  (  1,  1,  7)  (  1, 10,  4)
  0 -0.1503      0 -0.6196E-01  0 -0.5955E-01  0  0.2146E-01  0 -0.1077E-01
   (  1, 13,  3)  (  1,  3,  6)  (  1,  4,  1)  (  1, 32,  3)  (  1,  4,  1)
  0  0.5469E-02  0 -0.2834E-02  0  0.1854E-02  0  0.6438E-03  0 -0.2403E-03
   (  1, 33,  2)  (  1,  9,  3)  (  1,  9,  4)  (  1, 31,  3)  (  1, 13, 10)
  0  0.1649E-03  0 -0.5260E-04  0 -0.1867E-04  0  0.7899E-05  1 -0.2715    
   (  1, 32,  1)  (  1, 32,  1)  (  1, 26, 12)  (  1, 32,  1)  (  1, 26,  8)
  0 -0.1924      0 -0.1127      0 -0.5349E-01  0 -0.3108E-01  0 -0.2740E-01
   (  1,  9,  4)  (  1, 32,  1)  (  1, 35,  4)  (  1,  3,  6)  (  1,  8,  4)
  0 -0.6400E-02  0  0.3698E-02  0 -0.4355E-02  0  0.1513E-02  0  0.8834E-03
   (  1,  2,  7)  (  1,  8,  5)  (  1,  4,  1)  (  1, 28,  4)  (  1,  9,  4)
  0 -0.1044E-02  0 -0.3491E-03  0 -0.9465E-04  0 -0.4131E-04  0 -0.2055E-04
   (  1, 10,  1)  (  1,  4,  5)  (  1, 14,  1)  (  1, 10,  2)  (  1,  2,  3)
  0  0.1265E-04  0 -0.5324E-05  1  0.8214E-01  0  0.4736E-01  0 -0.4340E-01
   (  1, 30,  3)  (  1,  9,  3)  (  1,  9,  4)  (  1,  8,  5)  (  1,  8,  5)
  0 -0.1530E-01  0  0.8115E-02  0  0.7089E-02  0  0.2210E-02  0  0.1518E-02
   (  1, 35,  4)  (  1,  8,  5)  (  1, 27,  1)  (  1, 19,  1)  (  1,  9,  4)
  0 -0.1055E-02  0 -0.5655E-03  0  0.4623E-03  0  0.1502E-03  0  0.7488E-04
   (  1, 33,  2)  (  1,  9,  4)  (  1, 10,  4)  (  1, 18,  3)  (  1, 33,  2)
  0  0.2570E-04  0  0.1468E-04  0 -0.4129E-05  1  0.2911E-01  0  0.1393E-01
   (  1, 24,  2)  (  1,  1,  2)  (  1, 11, 12)  (  1,  9,  4)  (  1,  8,  5)
  0 -0.9151E-02  0 -0.3324E-02  0  0.2705E-02  0  0.2422E-02  0  0.9331E-03
   (  1,  8,  5)  (  1, 34,  6)  (  1, 10,  4)  (  1, 26,  1)  (  1, 18,  4)
  0  0.6550E-03  0  0.3358E-03  0  0.1554E-03  0 -0.1418E-03  0 -0.4603E-04
   (  1, 32,  1)  (  1, 20,  2)  (  1, 10,  4)  (  1,  9,  4)  (  1, 31,  1)
  0  0.1775E-04  0  0.7337E-05  1  0.7269E-02  0 -0.3685E-02  0 -0.2279E-02
   (  1,  2,  2)  (  1, 31, 13)  (  1,  9,  4)  (  1,  9,  4)  (  1,  8,  5)
  0  0.9265E-03  0  0.8635E-03  0  0.5968E-03  0  0.2907E-03  0  0.1882E-03
   (  1, 24,  3)  (  1,  4,  2)  (  1, 26,  1)  (  1, 32,  1)  (  1, 32,  1)
  0  0.8533E-04  0  0.3918E-04  0 -0.2534E-04  0  0.1440E-04  0  0.7094E-05
   (  1, 21,  2)  (  1,  3,  1)  (  1,  9,  4)  (  1,  9,  4)  (  1,  3,  3)
  1  0.1494E-02  0  0.1547E-02  0  0.7861E-03  0  0.2356E-03  0  0.2344E-03
   (  1,  8,  5)  (  1,  9,  4)  (  1, 31,  1)  (  1, 24,  4)  (  1,  3,  2)
  0 -0.1050E-03  0  0.1058E-03  0  0.3441E-04  0  0.1688E-04  0 -0.9686E-05
   (  1,  8,  4)  (  1, 32,  1)  (  1, 30,  5)  (  1, 27,  9)  (  1, 12,  3)
  1 -0.2576E-03  0  0.4469E-03  0  0.2143E-03  0  0.7701E-04  0  0.6020E-04
   (  1,  9,  4)  (  1,  9,  4)  (  1, 31,  1)  (  1, 17,  4)  (  1, 30,  5)
  0  0.2894E-04  0  0.3207E-04  0  0.1379E-04  0 -0.6771E-05  1 -0.1025E-03
   (  1, 26, 10)  (  1, 32,  1)  (  1,  4,  1)  (  1,  8,  4)  (  1,  9,  4)
  0  0.8453E-04  0  0.5369E-04  0  0.2125E-04  0  0.1521E-04  0  0.8963E-05
   (  1,  9,  4)  (  1, 31,  2)  (  1, 13,  2)  (  1, 27,  4)  (  1, 26, 10)
  1 -0.3606E-04  0 -0.1999E-04  0  0.1462E-04  0 -0.6522E-05  1 -0.1396E-04
   (  1,  9,  4)  (  1,  8,  5)  (  1,  8,  7)  (  1, 27,  1)  (  1,  9,  4)
  0 -0.8897E-05  1  0.6018E-05
   (  1,  8,  5)  (  1,  8,  5)

 MAXIMUM RESIDUAL FOR EACH ITERATION (1 INDICATES THE FIRST INNER ITERATION):

    RESIDUAL       RESIDUAL       RESIDUAL       RESIDUAL       RESIDUAL    
   LAYER,ROW,COL  LAYER,ROW,COL  LAYER,ROW,COL  LAYER,ROW,COL  LAYER,ROW,COL
 ---------------------------------------------------------------------------
  1  -67.94      0   25.01      0   20.67      0   17.97      0   13.21    
   (  1,  9,  4)  (  1,  1,  5)  (  1,  1,  7)  (  1,  6, 15)  (  1,  6, 15)
  0   8.324      0   5.143      0   2.661      0   1.333      0  0.6624    
   (  1,  4, 15)  (  1,  4, 15)  (  1,  3, 15)  (  1,  1, 15)  (  1,  1, 15)
  0  0.3540      0  0.1714      0  0.1195      0  0.5868E-01  0  0.2936E-01
   (  1,  7, 14)  (  1,  1, 15)  (  1,  1, 15)  (  1,  1, 15)  (  1,  1, 15)
  0  0.1434E-01  0  0.7263E-02  0  0.3480E-02  0  0.1862E-02  1   8.030    
   (  1,  1, 15)  (  1,  1, 15)  (  1,  1, 15)  (  1,  1, 15)  (  1,  9,  4)
  0   4.784      0   4.676      0   4.298      0   2.893      0   1.818    
   (  1, 28, 15)  (  1,  6, 15)  (  1,  6, 15)  (  1,  6, 15)  (  1,  6, 15)
  0  0.9062      0  0.4395      0  0.2578      0  0.1184      0  0.1021    
   (  1,  4, 15)  (  1,  3, 15)  (  1,  3, 15)  (  1,  1, 15)  (  1,  1, 15)
  0  0.5266E-01  0  0.2478E-01  0  0.1299E-01  0  0.6127E-02  0  0.2863E-02
   (  1,  1, 15)  (  1,  1, 15)  (  1,  1, 15)  (  1,  1, 15)  (  1,  1, 15)
  0  0.1414E-02  0  0.8384E-03  1   3.156      0  -1.491      0   1.297    
   (  1,  1, 15)  (  1,  1, 15)  (  1,  9,  4)  (  1, 29,  6)  (  1, 25, 15)
  0   1.163      0  0.9385      0  0.5657      0  0.3319      0  0.1550    
   (  1,  6, 15)  (  1,  6, 15)  (  1,  6, 15)  (  1,  6, 15)  (  1,  4, 15)
  0  0.6162E-01  0  0.4358E-01  0  0.2032E-01  0  0.9793E-02  0  0.4731E-02
   (  1,  3, 15)  (  1,  3, 15)  (  1,  3, 15)  (  1, 24, 15)  (  1, 24, 15)
  0  0.2604E-02  0  0.1184E-02  0  0.4894E-03  1 -0.8717      0 -0.5724    
   (  1, 24, 15)  (  1, 24, 15)  (  1, 24, 15)  (  1, 29,  6)  (  1, 29,  6)
  0  0.4059      0  0.3293      0  0.2625      0  0.1666      0  0.9708E-01
   (  1, 25, 15)  (  1,  6, 15)  (  1,  6, 15)  (  1,  6, 15)  (  1,  6, 15)
  0  0.4396E-01  0 -0.1616E-01  0  0.9601E-02  0  0.5636E-02  0  0.2992E-02
   (  1,  5, 15)  (  1, 39,  7)  (  1,  3, 15)  (  1, 27, 15)  (  1, 24, 15)
  0  0.1502E-02  0  0.7252E-03  1 -0.1943      0 -0.1524      0  0.1254    
   (  1, 27, 15)  (  1, 24, 15)  (  1, 29,  6)  (  1,  9,  4)  (  1, 25, 15)
  0  0.9519E-01  0  0.7269E-01  0  0.4788E-01  0  0.2750E-01  0  0.1344E-01
   (  1,  6, 15)  (  1,  6, 15)  (  1,  6, 15)  (  1,  6, 15)  (  1,  6, 15)
  0  0.4700E-02  0  0.1932E-02  0  0.1288E-02  0  0.9041E-03  0  0.4468E-03
   (  1,  5, 15)  (  1,  5, 15)  (  1, 27, 15)  (  1, 27, 15)  (  1,  5, 15)
  1  0.5790E-01  0  0.4935E-01  0  0.3817E-01  0  0.2826E-01  0  0.1962E-01
   (  1,  8,  5)  (  1, 25, 15)  (  1, 25, 15)  (  1,  6, 15)  (  1,  6, 15)
  0  0.1205E-01  0  0.5910E-02  0  0.3087E-02  0  0.1581E-02  0  0.9159E-03
   (  1,  6, 15)  (  1,  6, 15)  (  1,  6, 15)  (  1,  5, 15)  (  1,  5, 15)
  1 -0.2065E-01  0  0.1583E-01  0  0.1146E-01  0  0.8758E-02  0  0.6021E-02
   (  1,  9,  4)  (  1, 25, 15)  (  1, 25, 15)  (  1,  6, 15)  (  1,  6, 15)
  0  0.4203E-02  0  0.1945E-02  0  0.9091E-03  0  0.4888E-03  1  0.6066E-02
   (  1,  6, 15)  (  1,  6, 15)  (  1,  6, 15)  (  1,  5, 15)  (  1,  8,  5)
  0  0.4958E-02  0  0.3484E-02  0  0.2785E-02  0  0.1965E-02  0  0.1231E-02
   (  1, 25, 15)  (  1, 25, 15)  (  1,  6, 15)  (  1,  6, 15)  (  1,  6, 15)
  1  0.2126E-02  0  0.1841E-02  0  0.1261E-02  0  0.9402E-03  1  0.1152E-02
   (  1, 25, 15)  (  1, 25, 15)  (  1,  6, 15)  (  1,  6, 15)  (  1, 25, 15)
  0  0.9596E-03  1  0.9013E-03
   (  1, 25, 15)  (  1, 25, 15)



 OUTPUT CONTROL FOR STRESS PERIOD    3   TIME STEP    1
    SAVE HEAD FOR ALL LAYERS
    SAVE BUDGET
 UBDSV2 SAVING "   CONSTANT HEAD" ON UNIT  53 AT TIME STEP     1, STRESS PERIOD   3
 UBDSV1 SAVING "FLOW RIGHT FACE " ON UNIT  53 AT TIME STEP     1, STRESS PERIOD   3
 UBDSV1 SAVING "FLOW FRONT FACE " ON UNIT  53 AT TIME STEP     1, STRESS PERIOD   3

 HEAD WILL BE SAVED ON UNIT   51 AT END OF TIME STEP    1, STRESS PERIOD    3
1
  VOLUMETRIC BUDGET FOR ENTIRE MODEL AT END OF TIME STEP    1, STRESS PERIOD   3
  ------------------------------------------------------------------------------

     CUMULATIVE VOLUMES      L**3       RATES FOR THIS TIME STEP      L**3/T
     ------------------                 ------------------------

           IN:                                      IN:
           ---                                      ---
             STORAGE =     2709687.7500               STORAGE =           0.0000
       CONSTANT HEAD =           0.0000         CONSTANT HEAD =           0.0000
               WELLS =     1096200.0000                 WELLS =         600.0000
       RIVER LEAKAGE =      424784.0625         RIVER LEAKAGE =         264.9315
            RECHARGE =     6512448.5000              RECHARGE =        3563.2397

            TOTAL IN =    10743120.0000              TOTAL IN =        4428.1709

          OUT:                                     OUT:
          ----                                     ----
             STORAGE =           0.0000               STORAGE =           0.0000
       CONSTANT HEAD =      790933.5625         CONSTANT HEAD =         261.1818
               WELLS =           0.0000                 WELLS =           0.0000
       RIVER LEAKAGE =     9952247.0000         RIVER LEAKAGE =        4167.0293
            RECHARGE =           0.0000              RECHARGE =           0.0000

           TOTAL OUT =    10743181.0000             TOTAL OUT =        4428.2109

            IN - OUT =         -61.0000              IN - OUT =      -4.0039E-02

 PERCENT DISCREPANCY =          -0.00     PERCENT DISCREPANCY =          -0.00






         TIME SUMMARY AT END OF TIME STEP    1 IN STRESS PERIOD    3
                    SECONDS     MINUTES      HOURS       DAYS        YEARS
                    -----------------------------------------------------------
   TIME STEP LENGTH  86400.      1440.0      24.000      1.0000     2.73785E-03
 STRESS PERIOD TIME  86400.      1440.0      24.000      1.0000     2.73785E-03
         TOTAL TIME 1.57853E+08 2.63088E+06  43848.      1827.0      5.0021    
1

 Run end date and time (yyyy/mm/dd hh:mm:ss): 2018/01/12 15:44:16
 Elapsed run time:  0.036 Seconds

