                                  MODFLOW-NWT-SWR1 
      U.S. GEOLOGICAL SURVEY MODULAR FINITE-DIFFERENCE GROUNDWATER-FLOW MODEL
                            VERSION 1.1.3, 8/01/2017
                    BASED ON MODFLOW-2005 VERSION 1.11.00 08/08/2013

 LIST FILE: freyberg.list
                         UNIT    2

 OPENING freyberg.dis
 FILE TYPE:DIS   UNIT   11   STATUS:OLD    
 FORMAT:FORMATTED              ACCESS:SEQUENTIAL          

 OPENING freyberg.upw
 FILE TYPE:LPF   UNIT   31   STATUS:OLD    
 FORMAT:FORMATTED              ACCESS:SEQUENTIAL          

 OPENING freyberg.bas
 FILE TYPE:BAS6   UNIT   13   STATUS:OLD    
 FORMAT:FORMATTED              ACCESS:SEQUENTIAL          

 OPENING freyberg.rch
 FILE TYPE:RCH   UNIT   19   STATUS:OLD    
 FORMAT:FORMATTED              ACCESS:SEQUENTIAL          

 OPENING freyberg.wel
 FILE TYPE:WEL   UNIT   20   STATUS:OLD    
 FORMAT:FORMATTED              ACCESS:SEQUENTIAL          

 OPENING freyberg.riv
 FILE TYPE:RIV   UNIT   18   STATUS:OLD    
 FORMAT:FORMATTED              ACCESS:SEQUENTIAL          

 OPENING freyberg.oc
 FILE TYPE:OC   UNIT   14   STATUS:OLD    
 FORMAT:FORMATTED              ACCESS:SEQUENTIAL          

 OPENING freyberg.hds
 FILE TYPE:DATA   UNIT   51   STATUS:REPLACE
 FORMAT:FORMATTED              ACCESS:SEQUENTIAL          

 OPENING freyberg.ddn
 FILE TYPE:DATA(BINARY)   UNIT   52   STATUS:REPLACE
 FORMAT:BINARY                 ACCESS:SEQUENTIAL          

 OPENING freyberg.cbc
 FILE TYPE:DATA(BINARY)   UNIT   53   STATUS:REPLACE
 FORMAT:BINARY                 ACCESS:SEQUENTIAL          

 OPENING freyberg.pcg
 FILE TYPE:PCG   UNIT   32   STATUS:OLD    
 FORMAT:FORMATTED              ACCESS:SEQUENTIAL          

 BAS -- BASIC PACKAGE, VERSION 1.1.3, 8/01/2017 INPUT READ FROM UNIT   13
 
 MODFLOW was compiled using mixed precision
 Precision of REAL variables:           6
 Precision of DOUBLE PRECISION variables:          15

 DISCRETIZATION INPUT DATA READ FROM UNIT   11
 # Discretization file for MODFLOW, generated by Flopy.
    1 LAYERS        40 ROWS        20 COLUMNS
    3 STRESS PERIOD(S) IN SIMULATION
 MODEL TIME UNIT IS DAYS
 MODEL LENGTH UNIT IS METERS
  Confining bed flag for each layer:
   0



                               DELR
 READING ON UNIT   11 WITH FORMAT: (20G15.6)           



                               DELC
 READING ON UNIT   11 WITH FORMAT: (40G15.6)           

 TOP ELEVATION OF LAYER 1 =   35.0000    

 OPENING FILE ON UNIT   99:
 botm.ref                                                                                                                                                                                                



             MODEL LAYER BOTTOM EL. FOR LAYER   1
 READING ON UNIT   99 WITH FORMAT: (10E12.4)           


 STRESS PERIOD     LENGTH       TIME STEPS     MULTIPLIER FOR DELT    SS FLAG
 ----------------------------------------------------------------------------
        1         1.000000          1                    1.000         SS
        2         1825.000          1                    1.000         TR
        3         1.000000          1                    1.000         SS

 COMBINED STEADY-STATE AND TRANSIENT SIMULATION



 
 # Basic package file for MODFLOW, generated by Flopy.                           
 THE FREE FORMAT OPTION HAS BEEN SELECTED

 OPENING FILE ON UNIT   99:
 ibound.ref                                                                                                                                                                                              



                     BOUNDARY ARRAY FOR LAYER   1
 READING ON UNIT   99 WITH FORMAT: (25I3)              

 AQUIFER HEAD WILL BE SET TO  -999.99     AT ALL NO-FLOW NODES (IBOUND=0).

 OPENING FILE ON UNIT   99:
 strt.ref                                                                                                                                                                                                



                       INITIAL HEAD FOR LAYER   1
 READING ON UNIT   99 WITH FORMAT: (10E12.4)           
 # Output control package file for MODFLOW, generated by Flopy.

 OUTPUT CONTROL IS SPECIFIED ONLY AT TIME STEPS FOR WHICH OUTPUT IS DESIRED
 HEADS WILL BE SAVED WITH FORMAT: (20E15.6)           
 COMPACT CELL-BY-CELL BUDGET FILES WILL BE WRITTEN
 AUXILIARY DATA WILL BE SAVED IN CELL-BY-CELL BUDGET FILES
 HEAD PRINT FORMAT CODE IS   0    DRAWDOWN PRINT FORMAT CODE IS   0
 HEADS WILL BE SAVED ON UNIT   51    DRAWDOWNS WILL BE SAVED ON UNIT   52

 LPF -- LAYER-PROPERTY FLOW PACKAGE, VERSION 7, 5/2/2005
         INPUT READ FROM UNIT   31
 # UPW for MODFLOW-NWT, generated by Flopy.
 CELL-BY-CELL FLOWS WILL BE SAVED ON UNIT   53
 HEAD AT CELLS THAT CONVERT TO DRY= -1.00000E+30
 No named parameters

   LAYER FLAGS:
 LAYER       LAYTYP        LAYAVG         CHANI        LAYVKA        LAYWET
 ---------------------------------------------------------------------------
    1             1             0     1.000E+00             0             0

   INTERPRETATION OF LAYER FLAGS:
                        INTERBLOCK     HORIZONTAL    DATA IN
         LAYER TYPE   TRANSMISSIVITY   ANISOTROPY   ARRAY VKA   WETTABILITY
 LAYER      (LAYTYP)      (LAYAVG)       (CHANI)      (LAYVKA)      (LAYWET)
 ---------------------------------------------------------------------------
    1   CONVERTIBLE      HARMONIC     1.000E+00    VERTICAL K  NON-WETTABLE

 WETTING CAPABILITY IS NOT ACTIVE IN ANY LAYER

 OPENING FILE ON UNIT   99:
 hk_Layer_1.ref                                                                                                                                                                                          



              HYD. COND. ALONG ROWS FOR LAYER   1
 READING ON UNIT   99 WITH FORMAT: (20G15.6)           

      VERTICAL HYD. COND. =   1.00000     FOR LAYER   1

 OPENING FILE ON UNIT   99:
 ss_Layer_1.ref                                                                                                                                                                                          



                   SPECIFIC STORAGE FOR LAYER   1
 READING ON UNIT   99 WITH FORMAT: (20G15.6)           

           SPECIFIC YIELD =  0.178392     FOR LAYER   1

 WEL -- WELL PACKAGE FOR NWT VERSION 1.1.3,  8/01/2017 INPUT READ FROM UNIT   20
 # Well file for MODFLOW, generated by Flopy.
 No named parameters
 MAXIMUM OF      6 ACTIVE WELLS AT ONE TIME
 No named parameters


     0 Well parameters

 RIV -- RIVER PACKAGE, VERSION 7, 5/2/2005 INPUT READ FROM UNIT   18
 # RIV for MODFLOW, generated by Flopy.
 No named parameters
 MAXIMUM OF     40 ACTIVE RIVER REACHES AT ONE TIME


     0 River parameters

 RCH -- RECHARGE PACKAGE, VERSION 7, 5/2/2005 INPUT READ FROM UNIT   19
 # RCH for MODFLOW, generated by Flopy.
 No named parameters
 OPTION 3 -- RECHARGE TO HIGHEST ACTIVE NODE IN EACH VERTICAL COLUMN


     0 Recharge parameters

 PCG -- CONJUGATE-GRADIENT SOLUTION PACKAGE, VERSION 7, 5/2/2005
 MAXIMUM OF    100 CALLS OF SOLUTION ROUTINE
 MAXIMUM OF     25 INTERNAL ITERATIONS PER CALL TO SOLUTION ROUTINE
 MATRIX PRECONDITIONING TYPE :    1
 IHCOFADD option -- When an active cell is surrounded by dry cells, convert
 the cell to dry only if storage and head-dependent boundary flow are 0.



                                    SOLUTION BY THE CONJUGATE-GRADIENT METHOD
                                   -------------------------------------------
                    MAXIMUM NUMBER OF CALLS TO PCG ROUTINE =      100
                        MAXIMUM ITERATIONS PER CALL TO PCG =       25
                               MATRIX PRECONDITIONING TYPE =        1
        RELAXATION FACTOR (ONLY USED WITH PRECOND. TYPE 1) =    0.10000E+01
 PARAMETER OF POLYNOMIAL PRECOND. = 2 (2) OR IS CALCULATED :        2
                         HEAD CHANGE CRITERION FOR CLOSURE =    0.10000E-04
                     RESIDUAL CHANGE CRITERION FOR CLOSURE =    0.10000E+00
            PCG HEAD AND RESIDUAL CHANGE PRINTOUT INTERVAL =        5
     PRINTING FROM SOLVER IS LIMITED(1) OR SUPPRESSED (>1) =        0
                            STEADY-STATE DAMPING PARAMETER =    0.70000E+00
                               TRANSIENT DAMPING PARAMETER =    0.70000E+00
1
                            STRESS PERIOD NO.    1, LENGTH =   1.000000    
                            -----------------------------------------------

                              NUMBER OF TIME STEPS =     1

                               MULTIPLIER FOR DELT =     1.000

                            INITIAL TIME STEP SIZE =   1.000000    

 WELL NO.  LAYER   ROW   COL   STRESS RATE         
 --------------------------------------------------
      1      1      9     16       102.4    
      2      1     11     13       98.02    
      3      1     20     14       96.28    
      4      1     26     10       97.55    
      5      1     29      6       96.89    
      6      1     34     12       103.6    

      6 WELLS

 REACH NO.  LAYER   ROW   COL     STAGE      CONDUCTANCE     BOTTOM EL.         
 -------------------------------------------------------------------------------
      1      1      1     15       20.10           645.2           20.00    
      2      1      2     15       19.87           5560.           19.75    
      3      1      3     15       19.65           8354.           19.50    
      4      1      4     15       19.42           2648.           19.25    
      5      1      5     15       19.19           2454.           19.00    
      6      1      6     15       18.97           3738.           18.75    
      7      1      7     15       18.74           6162.           18.50    
      8      1      8     15       18.51           4072.           18.25    
      9      1      9     15       18.28          0.1186E+05       18.00    
     10      1     10     15       19.06           2160.           17.75    
     11      1     11     15       17.83           1615.           17.50    
     12      1     12     15       17.60           3035.           17.25    
     13      1     13     15       17.38           1488.           17.00    
     14      1     14     15       17.15           5968.           16.75    
     15      1     15     15       16.92           1004.           16.50    
     16      1     16     15       16.70          0.1087E+05       16.25    
     17      1     17     15       16.47           3857.           16.00    
     18      1     18     15       16.24           3790.           15.75    
     19      1     19     15       16.02           2445.           15.50    
     20      1     20     15       15.79           4217.           15.25    
     21      1     21     15       15.56           2694.           15.00    
     22      1     22     15       15.33           6267.           14.75    
     23      1     23     15       15.11           4895.           14.50    
     24      1     24     15       14.88          0.1192E+05       14.25    
     25      1     25     15       14.65          0.2029E+05       14.00    
     26      1     26     15       14.43           4248.           13.75    
     27      1     27     15       14.20           1448.           13.50    
     28      1     28     15       13.97           7392.           13.25    
     29      1     29     15       13.75           4112.           13.00    
     30      1     30     15       13.52          0.2941E+05       12.75    
     31      1     31     15       13.29           6152.           12.50    
     32      1     32     15       13.07           4120.           12.25    
     33      1     33     15       12.84          0.1752E+05       12.00    
     34      1     34     15       12.61           4876.           11.75    
     35      1     35     15       12.38           3829.           11.50    
     36      1     36     15       12.16           4290.           11.25    
     37      1     37     15       11.93           2265.           11.00    
     38      1     38     15       11.70           4890.           10.75    
     39      1     39     15       11.48           6642.           10.50    
     40      1     40     15       11.25           1777.           10.25    

     40 RIVER REACHES

 OPENING FILE ON UNIT   99:
 rech_0.ref                                                                                                                                                                                              



                           RECHARGE
 READING ON UNIT   99 WITH FORMAT: (20G15.6)           
 
 SOLVING FOR HEAD 


    16 CALLS TO PCG ROUTINE FOR TIME STEP     1 IN STRESS PERIOD    1
   188 TOTAL ITERATIONS

 MAXIMUM HEAD CHANGE FOR EACH ITERATION (1 INDICATES THE FIRST INNER ITERATION):

    HEAD CHANGE    HEAD CHANGE    HEAD CHANGE    HEAD CHANGE    HEAD CHANGE 
   LAYER,ROW,COL  LAYER,ROW,COL  LAYER,ROW,COL  LAYER,ROW,COL  LAYER,ROW,COL
 ---------------------------------------------------------------------------
  1  -55.25      0  -44.89      0   28.05      0   8.102      0  -3.106    
   (  1, 39, 12)  (  1,  9,  4)  (  1,  9,  4)  (  1, 39, 12)  (  1, 33,  2)
  0  -1.369      0 -0.6351      0 -0.3906      0 -0.2536      0 -0.7941E-01
   (  1, 30,  6)  (  1, 24,  8)  (  1, 37,  5)  (  1, 18,  4)  (  1,  1,  5)
  0 -0.5732E-01  0  0.3944E-01  0  0.2038E-01  0  0.7063E-02  0  0.2997E-02
   (  1,  9,  4)  (  1,  9,  4)  (  1,  8,  5)  (  1, 13,  2)  (  1, 34,  3)
  0  0.1020E-02  0  0.6505E-03  0 -0.4015E-03  0  0.1030E-03  0 -0.9576E-04
   (  1, 25,  8)  (  1, 13,  3)  (  1, 10,  1)  (  1, 16,  3)  (  1,  9,  4)
  0  0.4673E-04  0 -0.1165E-04  0  0.4334E-05  1  -14.71      0  -16.13    
   (  1,  9,  1)  (  1, 39, 14)  (  1, 29,  4)  (  1, 39, 12)  (  1,  9,  4)
  0   4.428      0   2.649      0 -0.9709      0 -0.4745      0 -0.2439    
   (  1, 32,  1)  (  1, 39, 12)  (  1, 33,  2)  (  1, 30,  6)  (  1, 14,  1)
  0 -0.1167      0 -0.8566E-01  0 -0.3109E-01  0 -0.1323E-01  0  0.1054E-01
   (  1, 37,  5)  (  1,  8,  5)  (  1, 21,  4)  (  1,  9,  4)  (  1,  9,  4)
  0 -0.3478E-02  0  0.1766E-02  0  0.7713E-03  0  0.3330E-03  0  0.2152E-03
   (  1, 15,  3)  (  1, 13,  2)  (  1, 34,  3)  (  1, 24,  8)  (  1, 13,  3)
  0 -0.1002E-03  0  0.3274E-04  0 -0.3749E-04  0  0.9916E-05  1   11.79    
   (  1, 10,  1)  (  1, 16,  3)  (  1,  9,  4)  (  1,  9,  1)  (  1,  9,  4)
  0  -8.880      0  -2.575      0 -0.8250      0 -0.3294      0 -0.1761    
   (  1,  9,  4)  (  1,  8,  5)  (  1,  3,  5)  (  1, 33,  2)  (  1, 14,  1)
  0 -0.8011E-01  0 -0.5120E-01  0 -0.1862E-01  0 -0.9602E-02  0  0.6400E-02
   (  1, 23,  5)  (  1,  7,  3)  (  1, 30,  6)  (  1, 20,  4)  (  1,  9,  4)
  0 -0.6527E-02  0  0.1431E-02  0  0.5352E-03  0  0.2439E-03  0 -0.1259E-03
   (  1,  9,  4)  (  1, 19,  9)  (  1,  1,  5)  (  1, 14,  2)  (  1, 15,  3)
  0  0.5694E-04  0 -0.1928E-04  0  0.1942E-04  0 -0.1766E-04  0 -0.4048E-05
   (  1, 32,  1)  (  1, 16,  2)  (  1,  9,  4)  (  1, 10,  2)  (  1, 19,  9)
  1   1.474      0 -0.7486      0 -0.7517      0 -0.2896      0 -0.1865    
   (  1, 22,  3)  (  1, 29,  7)  (  1,  9,  4)  (  1,  8,  5)  (  1, 33,  2)
  0 -0.7647E-01  0 -0.4358E-01  0 -0.1942E-01  0 -0.1166E-01  0  0.5289E-02
   (  1, 17,  2)  (  1, 31,  5)  (  1, 37,  5)  (  1,  8,  5)  (  1,  5,  1)
  0 -0.1484E-02  0 -0.8062E-03  0  0.5434E-03  0 -0.2893E-03  0 -0.6705E-04
   (  1,  3,  1)  (  1, 15,  3)  (  1,  9,  3)  (  1,  9,  4)  (  1, 32,  1)
  0  0.4452E-04  0  0.1793E-04  0  0.7945E-05  1 -0.5859      0  0.8400    
   (  1, 17,  2)  (  1, 39, 14)  (  1, 14,  3)  (  1,  9,  4)  (  1,  9,  4)
  0 -0.2085      0 -0.1398      0 -0.6231E-01  0 -0.2373E-01  0 -0.1593E-01
   (  1, 29,  8)  (  1, 24,  9)  (  1, 32,  1)  (  1, 21,  4)  (  1, 31,  5)
  0 -0.9810E-02  0 -0.4222E-02  0 -0.2039E-02  0  0.1126E-02  0 -0.5274E-03
   (  1,  8,  5)  (  1, 32,  1)  (  1, 18,  4)  (  1, 13,  1)  (  1,  9,  4)
  0  0.2221E-03  0  0.1100E-03  0 -0.2886E-04  0  0.1717E-04  0  0.7745E-05
   (  1,  9,  4)  (  1, 12,  2)  (  1, 23, 12)  (  1, 20,  9)  (  1, 39, 14)
  1 -0.2935      0  0.3105      0 -0.6540E-01  0 -0.4702E-01  0 -0.1821E-01
   (  1,  9,  4)  (  1,  9,  4)  (  1, 33, 11)  (  1, 23,  9)  (  1,  8,  5)
  0 -0.7144E-02  0 -0.4823E-02  0 -0.2830E-02  0 -0.1650E-02  0 -0.6655E-03
   (  1, 36,  5)  (  1, 31,  5)  (  1,  8,  5)  (  1, 32,  1)  (  1, 19,  4)
  0 -0.2847E-03  0  0.2541E-03  0 -0.9430E-04  0  0.4682E-04  0  0.1002E-04
   (  1,  9,  4)  (  1,  9,  2)  (  1, 15,  4)  (  1, 11,  2)  (  1,  1,  8)
  0  0.6143E-05  1 -0.6897E-01  0  0.7308E-01  0 -0.2153E-01  0 -0.1390E-01
   (  1, 16,  2)  (  1,  9,  4)  (  1,  9,  4)  (  1, 24,  9)  (  1, 22,  9)
  0 -0.5646E-02  0  0.2471E-02  0 -0.1107E-02  0 -0.5080E-03  0 -0.3752E-03
   (  1, 29,  7)  (  1,  6,  3)  (  1, 31,  6)  (  1, 37,  5)  (  1, 33,  5)
  0 -0.2045E-03  0  0.6512E-04  0  0.6390E-04  0 -0.2814E-04  0  0.1661E-04
   (  1, 19,  4)  (  1, 14,  1)  (  1,  9,  4)  (  1, 14,  3)  (  1, 11,  2)
  0  0.2934E-05  1  0.1506E-01  0 -0.8626E-02  0  0.8535E-02  0 -0.6915E-02
   (  1, 16, 11)  (  1, 22,  9)  (  1, 24,  9)  (  1,  9,  4)  (  1,  9,  4)
  0 -0.1420E-02  0  0.7838E-03  0 -0.3112E-03  0 -0.1429E-03  0  0.1077E-03
   (  1, 28,  7)  (  1,  8,  5)  (  1, 37,  5)  (  1, 28,  5)  (  1,  8,  5)
  0 -0.5547E-04  0  0.2903E-04  0 -0.9992E-05  1  0.5068E-02  0 -0.6655E-02
   (  1, 19,  4)  (  1, 13,  1)  (  1,  9,  1)  (  1,  9,  3)  (  1,  9,  4)
  0 -0.2851E-02  0 -0.1150E-02  0 -0.6182E-03  0 -0.2491E-03  0 -0.1025E-03
   (  1, 22,  9)  (  1, 28,  1)  (  1, 33,  2)  (  1, 30,  6)  (  1, 37,  5)
  0 -0.4163E-04  0  0.3959E-04  0 -0.1451E-04  0  0.8398E-05  1  0.2856E-02
   (  1, 37,  5)  (  1,  8,  5)  (  1, 19,  4)  (  1, 12,  1)  (  1,  9,  4)
  0 -0.2937E-02  0 -0.9009E-03  0 -0.3489E-03  0 -0.2301E-03  0 -0.9423E-04
   (  1,  9,  4)  (  1, 24, 11)  (  1, 29,  3)  (  1, 33,  2)  (  1, 18,  2)
  0 -0.2989E-04  0 -0.1157E-04  0 -0.5748E-05  1  0.1075E-02  0 -0.1007E-02
   (  1, 37,  5)  (  1, 37,  5)  (  1, 34,  7)  (  1,  9,  4)  (  1,  9,  4)
  0 -0.2598E-03  0 -0.1040E-03  0 -0.6956E-04  0 -0.2896E-04  0  0.1337E-04
   (  1, 22, 10)  (  1, 29,  4)  (  1, 33,  2)  (  1, 16,  2)  (  1,  6,  3)
  0 -0.2987E-05  1  0.3149E-03  0 -0.2830E-03  0 -0.8066E-04  0 -0.3114E-04
   (  1, 28,  7)  (  1,  9,  4)  (  1,  9,  4)  (  1,  8,  5)  (  1, 29,  3)
  0 -0.1709E-04  0 -0.7798E-05  1  0.9221E-04  0 -0.7437E-04  0 -0.3957E-04
   (  1, 33,  2)  (  1,  6,  3)  (  1,  9,  4)  (  1,  9,  4)  (  1,  8,  5)
  0 -0.1149E-04  0 -0.4772E-05  1  0.1311E-04  0  0.8493E-05  1  0.1431E-04
   (  1, 21, 11)  (  1, 31, 10)  (  1, 19, 11)  (  1, 32,  1)  (  1,  9,  4)
  0 -0.1702E-04  0 -0.6194E-05  1  0.6491E-05
   (  1,  9,  4)  (  1, 29,  7)  (  1,  9,  4)

 MAXIMUM RESIDUAL FOR EACH ITERATION (1 INDICATES THE FIRST INNER ITERATION):

    RESIDUAL       RESIDUAL       RESIDUAL       RESIDUAL       RESIDUAL    
   LAYER,ROW,COL  LAYER,ROW,COL  LAYER,ROW,COL  LAYER,ROW,COL  LAYER,ROW,COL
 ---------------------------------------------------------------------------
  1  0.1232E+05  0   6609.      0   3025.      0  -905.4      0   384.8    
   (  1, 30, 15)  (  1, 30, 15)  (  1, 30, 15)  (  1, 39,  7)  (  1, 30, 15)
  0  -271.6      0  -196.7      0  -123.4      0  -69.86      0  -34.56    
   (  1, 39, 15)  (  1, 39, 15)  (  1, 39, 15)  (  1, 39, 15)  (  1, 39, 15)
  0  -20.12      0  -16.35      0  -8.204      0  -3.563      0  -1.336    
   (  1, 39, 15)  (  1, 39, 15)  (  1, 39, 15)  (  1, 39, 15)  (  1, 39, 15)
  0 -0.4751      0 -0.1765      0 -0.6813E-01  0 -0.2875E-01  0 -0.2326E-01
   (  1, 39, 15)  (  1, 39, 15)  (  1, 38, 15)  (  1, 38, 15)  (  1, 38, 15)
  0 -0.8875E-02  0 -0.2233E-02  0 -0.1326E-02  1   2724.      0   1562.    
   (  1, 38, 15)  (  1, 39, 15)  (  1, 39, 15)  (  1, 30, 15)  (  1, 30, 15)
  0   680.5      0   190.1      0  -84.42      0  -59.03      0  -43.38    
   (  1, 30, 15)  (  1, 30, 15)  (  1, 39,  7)  (  1, 39, 15)  (  1, 39, 15)
  0  -28.26      0  -17.56      0  -9.550      0  -5.171      0  -4.426    
   (  1, 39, 15)  (  1, 39, 15)  (  1, 39, 15)  (  1, 39, 15)  (  1, 39, 15)
  0  -2.239      0  -1.018      0 -0.4156      0 -0.1600      0 -0.6303E-01
   (  1, 39, 15)  (  1, 39, 15)  (  1, 39, 15)  (  1, 39, 15)  (  1, 39, 15)
  0 -0.2360E-01  0 -0.9998E-02  0 -0.7284E-02  0 -0.2387E-02  1   1410.    
   (  1, 39, 15)  (  1, 39, 15)  (  1, 39, 15)  (  1, 39, 15)  (  1, 30, 15)
  0   494.4      0   197.7      0   66.72      0   25.85      0   13.02    
   (  1, 30, 15)  (  1, 30, 15)  (  1, 30, 15)  (  1, 30, 15)  (  1, 30, 15)
  0  -8.611      0  -5.342      0  -3.500      0  -2.309      0  -1.793    
   (  1, 39, 15)  (  1, 39, 15)  (  1, 39, 15)  (  1, 39, 15)  (  1, 39, 15)
  0  -1.140      0 -0.6211      0 -0.2950      0 -0.1404      0 -0.6301E-01
   (  1, 39, 15)  (  1, 39, 15)  (  1, 39, 15)  (  1, 39, 15)  (  1, 39, 15)
  0 -0.2624E-01  0 -0.1088E-01  0 -0.7794E-02  0 -0.3365E-02  0 -0.1086E-02
   (  1, 39, 15)  (  1, 39, 15)  (  1, 39, 15)  (  1, 39, 15)  (  1, 39, 15)
  1   319.9      0   105.7      0   66.60      0   27.80      0   10.44    
   (  1, 30, 15)  (  1, 30, 15)  (  1, 30, 15)  (  1, 30, 15)  (  1, 30, 15)
  0   5.792      0   3.121      0  -1.695      0  -1.147      0 -0.6976    
   (  1, 30, 15)  (  1, 30, 15)  (  1, 39, 15)  (  1, 39, 15)  (  1, 39, 15)
  0 -0.3891      0 -0.2115      0 -0.1823      0 -0.9799E-01  0 -0.4984E-01
   (  1, 39, 15)  (  1, 39, 15)  (  1, 39, 15)  (  1, 39, 15)  (  1, 39, 15)
  0 -0.2317E-01  0 -0.1051E-01  0 -0.4909E-02  1   216.1      0   93.13    
   (  1, 39, 15)  (  1, 39, 15)  (  1, 39, 15)  (  1, 30, 15)  (  1, 30, 15)
  0   37.44      0   11.19      0   4.111      0   2.152      0   1.098    
   (  1, 30, 15)  (  1, 30, 15)  (  1, 30, 15)  (  1, 30, 15)  (  1, 30, 15)
  0  0.6092      0 -0.3519      0 -0.2192      0 -0.1312      0 -0.1149    
   (  1, 30, 15)  (  1, 39, 15)  (  1, 39, 15)  (  1, 39, 15)  (  1, 39, 15)
  0 -0.6213E-01  0 -0.3235E-01  0 -0.1776E-01  0 -0.8318E-02  0 -0.3800E-02
   (  1, 39, 15)  (  1, 39, 15)  (  1, 39, 15)  (  1, 39, 15)  (  1, 39, 15)
  1   90.42      0   38.78      0   14.76      0   4.107      0   1.455    
   (  1, 30, 15)  (  1, 30, 15)  (  1, 30, 15)  (  1, 30, 15)  (  1, 30, 15)
  0  0.6697      0  0.3494      0  0.2091      0 -0.1072      0 -0.6784E-01
   (  1, 30, 15)  (  1, 30, 15)  (  1, 30, 15)  (  1, 39, 15)  (  1, 39, 15)
  0 -0.4600E-01  0 -0.3745E-01  0 -0.1962E-01  0 -0.9926E-02  0 -0.5344E-02
   (  1, 39, 15)  (  1, 39, 15)  (  1, 39, 15)  (  1, 39, 15)  (  1, 39, 15)
  0 -0.2532E-02  1   23.39      0   13.93      0   5.156      0   1.319    
   (  1, 39, 15)  (  1, 30, 15)  (  1, 30, 15)  (  1, 30, 15)  (  1, 30, 15)
  0  0.4470      0  0.1834      0  0.9378E-01  0  0.5823E-01  0 -0.3251E-01
   (  1, 30, 15)  (  1, 30, 15)  (  1, 30, 15)  (  1, 30, 15)  (  1, 39, 15)
  0 -0.2074E-01  0 -0.1323E-01  0 -0.1162E-01  0 -0.6177E-02  0 -0.2964E-02
   (  1, 39, 15)  (  1, 39, 15)  (  1, 39, 15)  (  1, 39, 15)  (  1, 39, 15)
  0 -0.1496E-02  1   6.347      0   2.435      0   1.490      0  0.4216    
   (  1, 39, 15)  (  1, 30, 15)  (  1, 30, 15)  (  1, 30, 15)  (  1, 30, 15)
  0  0.1393      0  0.5611E-01  0  0.3068E-01  0  0.1772E-01  0 -0.9937E-02
   (  1, 30, 15)  (  1, 30, 15)  (  1, 30, 15)  (  1, 30, 15)  (  1, 39, 15)
  0 -0.6298E-02  0 -0.3881E-02  0 -0.2233E-02  1   2.717      0   1.687    
   (  1, 39, 15)  (  1, 39, 15)  (  1, 39, 15)  (  1, 30, 15)  (  1, 30, 15)
  0  0.5279      0  0.1534      0  0.4406E-01  0  0.1729E-01  0  0.9328E-02
   (  1, 30, 15)  (  1, 30, 15)  (  1, 30, 15)  (  1, 30, 15)  (  1, 30, 15)
  0  0.5015E-02  0 -0.2934E-02  0 -0.1883E-02  0 -0.1183E-02  1   1.179    
   (  1, 30, 15)  (  1, 39, 15)  (  1, 39, 15)  (  1, 39, 15)  (  1, 30, 15)
  0  0.5787      0  0.1818      0  0.5553E-01  0  0.1310E-01  0  0.4797E-02
   (  1, 30, 15)  (  1, 30, 15)  (  1, 30, 15)  (  1, 30, 15)  (  1, 30, 15)
  0  0.2738E-02  0  0.1426E-02  0 -0.7762E-03  1  0.4223      0  0.1930    
   (  1, 30, 15)  (  1, 30, 15)  (  1, 39, 15)  (  1, 30, 15)  (  1, 30, 15)
  0  0.6279E-01  0  0.1858E-01  0  0.4226E-02  0  0.1600E-02  0  0.8269E-03
   (  1, 30, 15)  (  1, 30, 15)  (  1, 30, 15)  (  1, 30, 15)  (  1, 30, 15)
  0  0.4449E-03  1  0.1224      0  0.6306E-01  0  0.2044E-01  0  0.5723E-02
   (  1, 30, 15)  (  1, 30, 15)  (  1, 30, 15)  (  1, 30, 15)  (  1, 30, 15)
  0  0.1283E-02  0  0.5204E-03  1  0.3337E-01  0  0.2094E-01  0  0.8250E-02
   (  1, 30, 15)  (  1, 30, 15)  (  1, 30, 15)  (  1, 30, 15)  (  1, 30, 15)
  0  0.1438E-02  0  0.3953E-03  1  0.1166E-01  0  0.5046E-02  1  0.3065E-01
   (  1, 30, 15)  (  1, 30, 15)  (  1, 30, 15)  (  1, 30, 15)  (  1, 30, 15)
  0  0.1059E-01  0  0.2448E-02  1  0.1051E-01
   (  1, 30, 15)  (  1, 30, 15)  (  1, 30, 15)



 OUTPUT CONTROL FOR STRESS PERIOD    1   TIME STEP    1
    SAVE HEAD FOR ALL LAYERS
    SAVE BUDGET
 UBDSV2 SAVING "   CONSTANT HEAD" ON UNIT  53 AT TIME STEP     1, STRESS PERIOD   1
 UBDSV1 SAVING "FLOW RIGHT FACE " ON UNIT  53 AT TIME STEP     1, STRESS PERIOD   1
 UBDSV1 SAVING "FLOW FRONT FACE " ON UNIT  53 AT TIME STEP     1, STRESS PERIOD   1

 HEAD WILL BE SAVED ON UNIT   51 AT END OF TIME STEP    1, STRESS PERIOD    1
1
  VOLUMETRIC BUDGET FOR ENTIRE MODEL AT END OF TIME STEP    1, STRESS PERIOD   1
  ------------------------------------------------------------------------------

     CUMULATIVE VOLUMES      L**3       RATES FOR THIS TIME STEP      L**3/T
     ------------------                 ------------------------

           IN:                                      IN:
           ---                                      ---
             STORAGE =           0.0000               STORAGE =           0.0000
       CONSTANT HEAD =           0.0000         CONSTANT HEAD =           0.0000
               WELLS =         594.7780                 WELLS =         594.7780
       RIVER LEAKAGE =          68.4344         RIVER LEAKAGE =          68.4344
            RECHARGE =        5905.5771              RECHARGE =        5905.5771

            TOTAL IN =        6568.7896              TOTAL IN =        6568.7896

          OUT:                                     OUT:
          ----                                     ----
             STORAGE =           0.0000               STORAGE =           0.0000
       CONSTANT HEAD =         502.4320         CONSTANT HEAD =         502.4320
               WELLS =           0.0000                 WELLS =           0.0000
       RIVER LEAKAGE =        6066.4751         RIVER LEAKAGE =        6066.4751
            RECHARGE =           0.0000              RECHARGE =           0.0000

           TOTAL OUT =        6568.9072             TOTAL OUT =        6568.9072

            IN - OUT =          -0.1177              IN - OUT =          -0.1177

 PERCENT DISCREPANCY =          -0.00     PERCENT DISCREPANCY =          -0.00






         TIME SUMMARY AT END OF TIME STEP    1 IN STRESS PERIOD    1
                    SECONDS     MINUTES      HOURS       DAYS        YEARS
                    -----------------------------------------------------------
   TIME STEP LENGTH  86400.      1440.0      24.000      1.0000     2.73785E-03
 STRESS PERIOD TIME  86400.      1440.0      24.000      1.0000     2.73785E-03
         TOTAL TIME  86400.      1440.0      24.000      1.0000     2.73785E-03
1
1
                            STRESS PERIOD NO.    2, LENGTH =   1825.000    
                            -----------------------------------------------

                              NUMBER OF TIME STEPS =     1

                               MULTIPLIER FOR DELT =     1.000

                            INITIAL TIME STEP SIZE =   1825.000    

 WELL NO.  LAYER   ROW   COL   STRESS RATE         
 --------------------------------------------------
      1      1      9     16       106.8    
      2      1     11     13       91.13    
      3      1     20     14       108.6    
      4      1     26     10       107.2    
      5      1     29      6       73.39    
      6      1     34     12       98.99    

      6 WELLS

 REUSING NON-PARAMETER RIVER REACHES FROM LAST STRESS PERIOD

     40 RIVER REACHES

 OPENING FILE ON UNIT   99:
 rech_1.ref                                                                                                                                                                                              



                           RECHARGE
 READING ON UNIT   99 WITH FORMAT: (20G15.6)           
 
 SOLVING FOR HEAD 


    10 CALLS TO PCG ROUTINE FOR TIME STEP     1 IN STRESS PERIOD    2
    55 TOTAL ITERATIONS

 MAXIMUM HEAD CHANGE FOR EACH ITERATION (1 INDICATES THE FIRST INNER ITERATION):

    HEAD CHANGE    HEAD CHANGE    HEAD CHANGE    HEAD CHANGE    HEAD CHANGE 
   LAYER,ROW,COL  LAYER,ROW,COL  LAYER,ROW,COL  LAYER,ROW,COL  LAYER,ROW,COL
 ---------------------------------------------------------------------------
  1 -0.5325      0  0.7823E-01  0 -0.2579E-01  0  0.6500E-02  0 -0.1948E-02
   (  1, 29,  6)  (  1, 37, 12)  (  1, 27,  4)  (  1, 37,  5)  (  1, 39, 14)
  0  0.6166E-03  0  0.1540E-03  0 -0.5018E-04  0  0.1161E-04  0  0.4100E-05
   (  1, 35,  6)  (  1, 35,  4)  (  1, 38, 18)  (  1, 31,  9)  (  1, 29,  3)
  1 -0.1358      0  0.2176E-01  0 -0.6770E-02  0 -0.1535E-02  0 -0.5582E-03
   (  1, 29,  6)  (  1, 37, 12)  (  1, 28,  5)  (  1,  2,  8)  (  1, 39, 14)
  0  0.1637E-03  0  0.4416E-04  0 -0.1444E-04  0  0.3733E-05  1 -0.3461E-01
   (  1, 35,  6)  (  1, 36,  5)  (  1, 38, 18)  (  1, 38, 18)  (  1,  7, 10)
  0 -0.5973E-02  0 -0.1654E-02  0 -0.4432E-03  0 -0.1546E-03  0  0.4446E-04
   (  1,  8,  5)  (  1, 27,  5)  (  1,  2,  9)  (  1, 39, 14)  (  1, 35,  6)
  0 -0.1392E-04  0  0.4369E-05  1 -0.1025E-01  0 -0.1997E-02  0 -0.6228E-03
   (  1,  8,  5)  (  1, 39, 14)  (  1,  7, 10)  (  1,  8,  5)  (  1,  9,  4)
  0  0.1392E-03  0  0.4100E-04  0  0.1390E-04  0  0.4239E-05  1 -0.2937E-02
   (  1, 12,  9)  (  1, 19,  9)  (  1, 35,  4)  (  1, 32,  5)  (  1,  8, 10)
  0 -0.5933E-03  0 -0.2063E-03  0  0.4491E-04  0  0.1295E-04  0  0.4641E-05
   (  1,  8,  5)  (  1,  9,  4)  (  1, 12,  9)  (  1, 19,  9)  (  1, 35,  4)
  1 -0.8401E-03  0 -0.1701E-03  0 -0.5994E-04  0  0.1368E-04  0  0.4604E-05
   (  1,  6, 11)  (  1, 25,  9)  (  1,  9,  4)  (  1, 31, 11)  (  1, 19,  9)
  1 -0.2369E-03  0 -0.5277E-04  0 -0.1615E-04  0  0.4388E-05  1 -0.6508E-04
   (  1,  6, 11)  (  1, 25,  9)  (  1,  9,  4)  (  1, 31, 11)  (  1,  6, 11)
  0 -0.1561E-04  0 -0.4188E-05  1 -0.1909E-04  0 -0.5100E-05  1 -0.5701E-05
   (  1, 25,  9)  (  1, 38, 18)  (  1, 23, 13)  (  1, 25,  9)  (  1,  7, 13)

 MAXIMUM RESIDUAL FOR EACH ITERATION (1 INDICATES THE FIRST INNER ITERATION):

    RESIDUAL       RESIDUAL       RESIDUAL       RESIDUAL       RESIDUAL    
   LAYER,ROW,COL  LAYER,ROW,COL  LAYER,ROW,COL  LAYER,ROW,COL  LAYER,ROW,COL
 ---------------------------------------------------------------------------
  1   8.881      0   3.014      0   1.037      0  0.3191      0  0.8112E-01
   (  1, 14, 15)  (  1,  5, 15)  (  1,  2, 15)  (  1,  2, 15)  (  1, 20, 15)
  0  0.3200E-01  0  0.9592E-02  0  0.2794E-02  0  0.8493E-03  0  0.2741E-03
   (  1, 20, 15)  (  1, 20, 15)  (  1, 16, 15)  (  1, 16, 15)  (  1, 16, 15)
  1   2.895      0  0.8591      0  0.2982      0  0.9246E-01  0  0.2337E-01
   (  1, 14, 15)  (  1,  5, 15)  (  1,  2, 15)  (  1,  2, 15)  (  1,  2, 15)
  0  0.9205E-02  0  0.2686E-02  0  0.7984E-03  0  0.2348E-03  1  0.9359    
   (  1, 20, 15)  (  1, 20, 15)  (  1, 16, 15)  (  1, 16, 15)  (  1, 14, 15)
  0  0.2639      0  0.8746E-01  0  0.2788E-01  0  0.7702E-02  0  0.2783E-02
   (  1,  5, 15)  (  1,  2, 15)  (  1,  2, 15)  (  1,  2, 15)  (  1, 20, 15)
  0  0.8741E-03  0  0.2548E-03  1  0.3001      0  0.8718E-01  0  0.2646E-01
   (  1, 20, 15)  (  1, 16, 15)  (  1, 14, 15)  (  1,  5, 15)  (  1,  2, 15)
  0  0.8110E-02  0  0.2503E-02  0  0.8675E-03  0  0.2842E-03  1  0.9555E-01
   (  1,  2, 15)  (  1,  2, 15)  (  1,  2, 15)  (  1, 24, 15)  (  1, 14, 15)
  0  0.2956E-01  0  0.8307E-02  0  0.2506E-02  0  0.7960E-03  0  0.2650E-03
   (  1,  5, 15)  (  1,  2, 15)  (  1,  5, 15)  (  1,  5, 15)  (  1,  2, 15)
  1  0.3068E-01  0  0.1024E-01  0  0.2648E-02  0  0.8347E-03  0  0.2781E-03
   (  1,  5, 15)  (  1, 14, 15)  (  1,  2, 15)  (  1,  5, 15)  (  1,  5, 15)
  1  0.9851E-02  0  0.3477E-02  0  0.8338E-03  0  0.2665E-03  1  0.3180E-02
   (  1,  5, 15)  (  1, 14, 15)  (  1,  2, 15)  (  1,  5, 15)  (  1,  5, 15)
  0  0.1178E-02  0  0.2752E-03  1  0.1068E-02  0  0.3676E-03  1  0.4096E-03
   (  1, 14, 15)  (  1,  2, 15)  (  1,  5, 15)  (  1, 14, 15)  (  1,  6, 15)



 OUTPUT CONTROL FOR STRESS PERIOD    2   TIME STEP    1
    SAVE HEAD FOR ALL LAYERS
    SAVE BUDGET
 UBDSV1 SAVING "         STORAGE" ON UNIT  53 AT TIME STEP     1, STRESS PERIOD   2
 UBDSV2 SAVING "   CONSTANT HEAD" ON UNIT  53 AT TIME STEP     1, STRESS PERIOD   2
 UBDSV1 SAVING "FLOW RIGHT FACE " ON UNIT  53 AT TIME STEP     1, STRESS PERIOD   2
 UBDSV1 SAVING "FLOW FRONT FACE " ON UNIT  53 AT TIME STEP     1, STRESS PERIOD   2

 HEAD WILL BE SAVED ON UNIT   51 AT END OF TIME STEP    1, STRESS PERIOD    2
1
  VOLUMETRIC BUDGET FOR ENTIRE MODEL AT END OF TIME STEP    1, STRESS PERIOD   2
  ------------------------------------------------------------------------------

     CUMULATIVE VOLUMES      L**3       RATES FOR THIS TIME STEP      L**3/T
     ------------------                 ------------------------

           IN:                                      IN:
           ---                                      ---
             STORAGE =     3321814.5000               STORAGE =        1820.1724
       CONSTANT HEAD =           0.0000         CONSTANT HEAD =           0.0000
               WELLS =     1070353.8750                 WELLS =         586.1694
       RIVER LEAKAGE =      177103.5469         RIVER LEAKAGE =          97.0055
            RECHARGE =     4993726.0000              RECHARGE =        2733.0522

            TOTAL IN =     9562998.0000              TOTAL IN =        5236.3994

          OUT:                                     OUT:
          ----                                     ----
             STORAGE =           0.0000               STORAGE =           0.0000
       CONSTANT HEAD =      708876.5000         CONSTANT HEAD =         388.1502
               WELLS =           0.0000                 WELLS =           0.0000
       RIVER LEAKAGE =     8854182.0000         RIVER LEAKAGE =        4848.2827
            RECHARGE =           0.0000              RECHARGE =           0.0000

           TOTAL OUT =     9563058.0000             TOTAL OUT =        5236.4331

            IN - OUT =         -60.0000              IN - OUT =      -3.3691E-02

 PERCENT DISCREPANCY =          -0.00     PERCENT DISCREPANCY =          -0.00






         TIME SUMMARY AT END OF TIME STEP    1 IN STRESS PERIOD    2
                    SECONDS     MINUTES      HOURS       DAYS        YEARS
                    -----------------------------------------------------------
   TIME STEP LENGTH 1.57680E+08 2.62800E+06  43800.      1825.0      4.9966    
 STRESS PERIOD TIME 1.57680E+08 2.62800E+06  43800.      1825.0      4.9966    
         TOTAL TIME 1.57766E+08 2.62944E+06  43824.      1826.0      4.9993    
1
1
                            STRESS PERIOD NO.    3, LENGTH =   1.000000    
                            -----------------------------------------------

                              NUMBER OF TIME STEPS =     1

                               MULTIPLIER FOR DELT =     1.000

                            INITIAL TIME STEP SIZE =   1.000000    

 WELL NO.  LAYER   ROW   COL   STRESS RATE         
 --------------------------------------------------
      1      1      9     16       106.8    
      2      1     11     13       91.13    
      3      1     20     14       108.6    
      4      1     26     10       107.2    
      5      1     29      6       73.39    
      6      1     34     12       98.99    

      6 WELLS

 REUSING NON-PARAMETER RIVER REACHES FROM LAST STRESS PERIOD

     40 RIVER REACHES

 OPENING FILE ON UNIT   99:
 rech_2.ref                                                                                                                                                                                              



                           RECHARGE
 READING ON UNIT   99 WITH FORMAT: (20G15.6)           
 
 SOLVING FOR HEAD 


    11 CALLS TO PCG ROUTINE FOR TIME STEP     1 IN STRESS PERIOD    3
   115 TOTAL ITERATIONS

 MAXIMUM HEAD CHANGE FOR EACH ITERATION (1 INDICATES THE FIRST INNER ITERATION):

    HEAD CHANGE    HEAD CHANGE    HEAD CHANGE    HEAD CHANGE    HEAD CHANGE 
   LAYER,ROW,COL  LAYER,ROW,COL  LAYER,ROW,COL  LAYER,ROW,COL  LAYER,ROW,COL
 ---------------------------------------------------------------------------
  1  -2.725      0  -2.750      0  -1.370      0 -0.4551      0 -0.2697    
   (  1,  9,  4)  (  1,  8,  5)  (  1,  1,  5)  (  1,  1,  8)  (  1,  3,  1)
  0 -0.1416      0 -0.6183E-01  0 -0.4091E-01  0  0.2406E-01  0 -0.9077E-02
   (  1,  3,  6)  (  1,  2,  1)  (  1,  5,  1)  (  1, 32,  1)  (  1,  5,  1)
  0  0.4887E-02  0 -0.4536E-02  0 -0.1595E-02  0 -0.3795E-03  0 -0.1691E-03
   (  1,  9,  4)  (  1,  9,  4)  (  1,  1,  2)  (  1, 18,  9)  (  1, 36,  5)
  0  0.9096E-04  0  0.3922E-04  0 -0.1495E-04  0 -0.1240E-04  0  0.1149E-04
   (  1, 24, 10)  (  1, 29,  3)  (  1, 15, 11)  (  1,  9,  3)  (  1,  9,  4)
  0  0.2157E-05  1 -0.4279      0 -0.2816      0 -0.9329E-01  0 -0.5711E-01
   (  1, 22,  9)  (  1, 26,  4)  (  1,  9,  4)  (  1,  8,  5)  (  1, 28,  4)
  0 -0.3941E-01  0 -0.1603E-01  0 -0.8502E-02  0 -0.4474E-02  0 -0.4934E-02
   (  1, 21,  4)  (  1, 32,  1)  (  1,  5,  2)  (  1,  2,  6)  (  1,  5,  1)
  0 -0.1283E-02  0 -0.6931E-03  0 -0.2222E-03  0 -0.2107E-03  0  0.1265E-03
   (  1,  3,  7)  (  1, 10,  1)  (  1,  4,  5)  (  1,  9,  3)  (  1,  9,  4)
  0  0.3213E-04  0 -0.1258E-04  0  0.5006E-05  1  0.1337      0  0.6322E-01
   (  1, 24, 12)  (  1, 17,  2)  (  1,  7,  9)  (  1,  9,  4)  (  1,  8,  5)
  0 -0.5956E-01  0 -0.1388E-01  0  0.1185E-01  0  0.6900E-02  0  0.2970E-02
   (  1,  8,  5)  (  1, 30,  6)  (  1,  3,  1)  (  1,  1,  3)  (  1, 20,  2)
  0  0.1339E-02  0  0.5881E-03  0  0.3052E-03  0 -0.1801E-03  0  0.1606E-03
   (  1, 16,  3)  (  1, 32,  1)  (  1,  2,  1)  (  1, 11,  1)  (  1,  9,  4)
  0  0.5308E-04  0 -0.3429E-04  0  0.1428E-04  0  0.3627E-05  1  0.4694E-01
   (  1, 17,  4)  (  1, 12,  1)  (  1, 19,  4)  (  1,  1,  3)  (  1,  9,  4)
  0  0.2308E-01  0 -0.1496E-01  0  0.5764E-02  0  0.3724E-02  0  0.2666E-02
   (  1,  8,  5)  (  1,  8,  5)  (  1, 21,  1)  (  1, 26,  1)  (  1,  2,  3)
  0  0.1104E-02  0  0.3195E-03  0  0.2640E-03  0 -0.1568E-03  0  0.7626E-04
   (  1, 21,  2)  (  1,  1,  9)  (  1, 17,  4)  (  1, 11,  1)  (  1,  9,  4)
  0 -0.4739E-04  0  0.1288E-04  0 -0.6213E-05  1  0.1019E-01  0 -0.5564E-02
   (  1,  9,  3)  (  1,  2, 11)  (  1, 11,  2)  (  1,  9,  4)  (  1,  9,  4)
  0  0.3008E-02  0  0.1947E-02  0  0.1107E-02  0  0.5488E-03  0  0.2256E-03
   (  1,  9,  4)  (  1, 22,  1)  (  1, 12,  4)  (  1,  3,  5)  (  1, 21,  3)
  0  0.8023E-04  0  0.4689E-04  0 -0.3670E-04  0  0.1225E-04  0 -0.7486E-05
   (  1, 16,  4)  (  1, 26,  2)  (  1, 11,  1)  (  1, 18,  4)  (  1,  9,  4)
  1 -0.1599E-02  0  0.3173E-02  0 -0.5602E-03  0  0.5080E-03  0  0.3511E-03
   (  1,  9,  4)  (  1,  9,  4)  (  1,  9,  4)  (  1, 25,  3)  (  1,  4,  2)
  0  0.1489E-03  0  0.7643E-04  0  0.3554E-04  0 -0.1978E-04  0  0.7070E-05
   (  1, 26,  1)  (  1, 21,  4)  (  1,  5,  1)  (  1,  8,  4)  (  1, 19,  4)
  1 -0.6639E-03  0  0.6508E-03  0 -0.1581E-03  0  0.1223E-03  0  0.7820E-04
   (  1,  9,  4)  (  1,  9,  4)  (  1, 33, 11)  (  1, 25,  3)  (  1, 24,  6)
  0  0.4469E-04  0  0.2666E-04  0 -0.1388E-04  0  0.5354E-05  1 -0.2178E-03
   (  1, 28,  1)  (  1, 19,  4)  (  1,  8,  5)  (  1,  5,  2)  (  1,  9,  4)
  0  0.1154E-03  0  0.7853E-04  0  0.3031E-04  0 -0.2012E-04  0  0.1351E-04
   (  1,  9,  4)  (  1,  8,  6)  (  1, 27,  4)  (  1,  4,  1)  (  1,  9,  4)
  0  0.5431E-05  1 -0.7056E-04  0 -0.4023E-04  0  0.2783E-04  0  0.8174E-05
   (  1, 19,  4)  (  1,  9,  4)  (  1,  8,  5)  (  1,  8,  6)  (  1, 30,  6)
  1 -0.2469E-04  0 -0.1216E-04  0  0.1136E-04  0 -0.3120E-05  1 -0.6992E-05
   (  1,  9,  4)  (  1,  8,  5)  (  1,  8,  7)  (  1, 25,  1)  (  1,  9,  4)

 MAXIMUM RESIDUAL FOR EACH ITERATION (1 INDICATES THE FIRST INNER ITERATION):

    RESIDUAL       RESIDUAL       RESIDUAL       RESIDUAL       RESIDUAL    
   LAYER,ROW,COL  LAYER,ROW,COL  LAYER,ROW,COL  LAYER,ROW,COL  LAYER,ROW,COL
 ---------------------------------------------------------------------------
  1   62.80      0  -23.19      0   17.35      0   15.86      0   10.18    
   (  1,  8,  5)  (  1,  8,  6)  (  1,  6, 15)  (  1,  5, 15)  (  1,  5, 15)
  0   7.224      0   4.523      0   2.698      0   1.210      0  0.5223    
   (  1,  2, 15)  (  1,  1, 15)  (  1,  1, 15)  (  1,  1, 15)  (  1,  1, 15)
  0  0.3078      0  0.2092      0 -0.9539E-01  0  0.4211E-01  0  0.1918E-01
   (  1,  1, 15)  (  1,  1, 15)  (  1,  3, 13)  (  1,  1, 15)  (  1,  1, 15)
  0  0.8919E-02  0 -0.3434E-02  0  0.1486E-02  0  0.9086E-03  0  0.6187E-03
   (  1, 39, 14)  (  1,  4, 12)  (  1,  2, 15)  (  1,  2, 15)  (  1,  2, 15)
  0  0.2682E-03  1   4.799      0   4.309      0   4.225      0   3.444    
   (  1,  2, 15)  (  1, 36, 15)  (  1, 33, 15)  (  1, 28, 15)  (  1,  5, 15)
  0   2.132      0   1.428      0  0.8006      0  0.3787      0  0.1798    
   (  1,  5, 15)  (  1,  2, 15)  (  1,  2, 15)  (  1,  1, 15)  (  1,  1, 15)
  0  0.7786E-01  0  0.3820E-01  0  0.1885E-01  0  0.1428E-01  0  0.8043E-02
   (  1,  1, 15)  (  1,  2, 15)  (  1,  2, 15)  (  1,  2, 15)  (  1,  2, 15)
  0  0.3630E-02  0  0.1576E-02  0  0.6965E-03  1  -2.788      0   1.349    
   (  1,  2, 15)  (  1,  2, 15)  (  1,  2, 15)  (  1,  8,  5)  (  1,  9,  9)
  0   1.282      0  0.8816      0  0.5856      0  0.3296      0  0.1402    
   (  1, 29, 15)  (  1, 28, 15)  (  1,  5, 15)  (  1,  5, 15)  (  1,  5, 15)
  0  0.6661E-01  0  0.3622E-01  0  0.1747E-01  0  0.8838E-02  0  0.6783E-02
   (  1, 25, 15)  (  1, 25, 15)  (  1, 25, 15)  (  1, 25, 15)  (  1, 28, 15)
  0  0.3059E-02  0  0.1453E-02  0  0.6913E-03  0  0.3087E-03  1 -0.9117    
   (  1, 25, 15)  (  1,  2, 15)  (  1,  2, 15)  (  1,  2, 15)  (  1, 26, 10)
  0  0.5045      0  0.3907      0  0.2380      0  0.1487      0  0.8373E-01
   (  1,  9,  9)  (  1, 32, 15)  (  1, 28, 15)  (  1, 28, 15)  (  1,  5, 15)
  0  0.4027E-01  0  0.2216E-01  0  0.1057E-01  0  0.4907E-02  0  0.4050E-02
   (  1, 28, 15)  (  1, 28, 15)  (  1, 28, 15)  (  1, 28, 15)  (  1, 28, 15)
  0  0.2155E-02  0  0.9631E-03  0  0.3977E-03  1 -0.1961      0  0.1300    
   (  1, 28, 15)  (  1, 28, 15)  (  1, 28, 15)  (  1, 26, 10)  (  1, 32, 15)
  0  0.1193      0  0.6770E-01  0  0.3687E-01  0  0.2111E-01  0  0.9497E-02
   (  1, 32, 15)  (  1, 32, 15)  (  1, 32, 15)  (  1,  5, 15)  (  1, 28, 15)
  0  0.5342E-02  0  0.3156E-02  0  0.1487E-02  0  0.7575E-03  0  0.4603E-03
   (  1, 28, 15)  (  1, 28, 15)  (  1, 28, 15)  (  1, 28, 15)  (  1, 28, 15)
  1 -0.9607E-01  0  0.4235E-01  0  0.3675E-01  0  0.2347E-01  0  0.1052E-01
   (  1, 26, 10)  (  1,  9,  9)  (  1, 32, 15)  (  1, 32, 15)  (  1, 32, 15)
  0  0.6288E-02  0  0.3540E-02  0  0.2007E-02  0  0.1008E-02  0  0.5014E-03
   (  1,  6, 15)  (  1, 28, 15)  (  1, 28, 15)  (  1, 28, 15)  (  1, 28, 15)
  1 -0.3474E-01  0  0.1303E-01  0  0.1136E-01  0  0.7889E-02  0  0.3351E-02
   (  1, 26, 10)  (  1, 32, 15)  (  1, 32, 15)  (  1, 32, 15)  (  1, 33, 15)
  0  0.2015E-02  0  0.1034E-02  0  0.5608E-03  0  0.3083E-03  1 -0.1036E-01
   (  1, 33, 15)  (  1, 28, 15)  (  1, 28, 15)  (  1, 28, 15)  (  1, 26, 10)
  0  0.4247E-02  0  0.3553E-02  0  0.2556E-02  0  0.1281E-02  0  0.6349E-03
   (  1, 32, 15)  (  1, 32, 15)  (  1, 32, 15)  (  1, 33, 15)  (  1, 33, 15)
  0  0.3504E-03  1 -0.2874E-02  0 -0.1598E-02  0  0.1151E-02  0  0.8239E-03
   (  1, 33, 15)  (  1, 26, 10)  (  1,  8,  8)  (  1, 32, 15)  (  1, 32, 15)
  1  0.1031E-02  0  0.7909E-03  0  0.4084E-03  0  0.2421E-03  1  0.4243E-03
   (  1, 32, 15)  (  1, 32, 15)  (  1, 32, 15)  (  1, 32, 15)  (  1, 32, 15)



 OUTPUT CONTROL FOR STRESS PERIOD    3   TIME STEP    1
    SAVE HEAD FOR ALL LAYERS
    SAVE BUDGET
 UBDSV2 SAVING "   CONSTANT HEAD" ON UNIT  53 AT TIME STEP     1, STRESS PERIOD   3
 UBDSV1 SAVING "FLOW RIGHT FACE " ON UNIT  53 AT TIME STEP     1, STRESS PERIOD   3
 UBDSV1 SAVING "FLOW FRONT FACE " ON UNIT  53 AT TIME STEP     1, STRESS PERIOD   3

 HEAD WILL BE SAVED ON UNIT   51 AT END OF TIME STEP    1, STRESS PERIOD    3
1
  VOLUMETRIC BUDGET FOR ENTIRE MODEL AT END OF TIME STEP    1, STRESS PERIOD   3
  ------------------------------------------------------------------------------

     CUMULATIVE VOLUMES      L**3       RATES FOR THIS TIME STEP      L**3/T
     ------------------                 ------------------------

           IN:                                      IN:
           ---                                      ---
             STORAGE =     3321814.5000               STORAGE =           0.0000
       CONSTANT HEAD =           9.6975         CONSTANT HEAD =           9.6975
               WELLS =     1070940.0000                 WELLS =         586.1694
       RIVER LEAKAGE =      177237.3906         RIVER LEAKAGE =         133.8509
            RECHARGE =     4996459.0000              RECHARGE =        2733.0522

            TOTAL IN =     9566460.0000              TOTAL IN =        3462.7700

          OUT:                                     OUT:
          ----                                     ----
             STORAGE =           0.0000               STORAGE =           0.0000
       CONSTANT HEAD =      709057.5625         CONSTANT HEAD =         181.0389
               WELLS =           0.0000                 WELLS =           0.0000
       RIVER LEAKAGE =     8857464.0000         RIVER LEAKAGE =        3281.7488
            RECHARGE =           0.0000              RECHARGE =           0.0000

           TOTAL OUT =     9566522.0000             TOTAL OUT =        3462.7876

            IN - OUT =         -62.0000              IN - OUT =      -1.7578E-02

 PERCENT DISCREPANCY =          -0.00     PERCENT DISCREPANCY =          -0.00






         TIME SUMMARY AT END OF TIME STEP    1 IN STRESS PERIOD    3
                    SECONDS     MINUTES      HOURS       DAYS        YEARS
                    -----------------------------------------------------------
   TIME STEP LENGTH  86400.      1440.0      24.000      1.0000     2.73785E-03
 STRESS PERIOD TIME  86400.      1440.0      24.000      1.0000     2.73785E-03
         TOTAL TIME 1.57853E+08 2.63088E+06  43848.      1827.0      5.0021    
1

 Run end date and time (yyyy/mm/dd hh:mm:ss): 2018/01/14 22:19:02
 Elapsed run time:  0.048 Seconds

