                                  MODFLOW-NWT-SWR1 
      U.S. GEOLOGICAL SURVEY MODULAR FINITE-DIFFERENCE GROUNDWATER-FLOW MODEL
                            VERSION 1.1.3, 8/01/2017
                    BASED ON MODFLOW-2005 VERSION 1.11.00 08/08/2013

 LIST FILE: freyberg.list
                         UNIT    2

 OPENING freyberg.dis
 FILE TYPE:DIS   UNIT   11   STATUS:OLD    
 FORMAT:FORMATTED              ACCESS:SEQUENTIAL          

 OPENING freyberg.upw
 FILE TYPE:LPF   UNIT   31   STATUS:OLD    
 FORMAT:FORMATTED              ACCESS:SEQUENTIAL          

 OPENING freyberg.bas
 FILE TYPE:BAS6   UNIT   13   STATUS:OLD    
 FORMAT:FORMATTED              ACCESS:SEQUENTIAL          

 OPENING freyberg.rch
 FILE TYPE:RCH   UNIT   19   STATUS:OLD    
 FORMAT:FORMATTED              ACCESS:SEQUENTIAL          

 OPENING freyberg.wel
 FILE TYPE:WEL   UNIT   20   STATUS:OLD    
 FORMAT:FORMATTED              ACCESS:SEQUENTIAL          

 OPENING freyberg.riv
 FILE TYPE:RIV   UNIT   18   STATUS:OLD    
 FORMAT:FORMATTED              ACCESS:SEQUENTIAL          

 OPENING freyberg.oc
 FILE TYPE:OC   UNIT   14   STATUS:OLD    
 FORMAT:FORMATTED              ACCESS:SEQUENTIAL          

 OPENING freyberg.hds
 FILE TYPE:DATA   UNIT   51   STATUS:REPLACE
 FORMAT:FORMATTED              ACCESS:SEQUENTIAL          

 OPENING freyberg.ddn
 FILE TYPE:DATA(BINARY)   UNIT   52   STATUS:REPLACE
 FORMAT:BINARY                 ACCESS:SEQUENTIAL          

 OPENING freyberg.cbc
 FILE TYPE:DATA(BINARY)   UNIT   53   STATUS:REPLACE
 FORMAT:BINARY                 ACCESS:SEQUENTIAL          

 OPENING freyberg.pcg
 FILE TYPE:PCG   UNIT   32   STATUS:OLD    
 FORMAT:FORMATTED              ACCESS:SEQUENTIAL          

 BAS -- BASIC PACKAGE, VERSION 1.1.3, 8/01/2017 INPUT READ FROM UNIT   13
 
 MODFLOW was compiled using mixed precision
 Precision of REAL variables:           6
 Precision of DOUBLE PRECISION variables:          15

 DISCRETIZATION INPUT DATA READ FROM UNIT   11
 # Discretization file for MODFLOW, generated by Flopy.
    1 LAYERS        40 ROWS        20 COLUMNS
    3 STRESS PERIOD(S) IN SIMULATION
 MODEL TIME UNIT IS DAYS
 MODEL LENGTH UNIT IS METERS
  Confining bed flag for each layer:
   0



                               DELR
 READING ON UNIT   11 WITH FORMAT: (20G15.6)           



                               DELC
 READING ON UNIT   11 WITH FORMAT: (40G15.6)           

 TOP ELEVATION OF LAYER 1 =   35.0000    

 OPENING FILE ON UNIT   99:
 botm.ref                                                                                                                                                                                                



             MODEL LAYER BOTTOM EL. FOR LAYER   1
 READING ON UNIT   99 WITH FORMAT: (10E12.4)           


 STRESS PERIOD     LENGTH       TIME STEPS     MULTIPLIER FOR DELT    SS FLAG
 ----------------------------------------------------------------------------
        1         1.000000          1                    1.000         SS
        2         1825.000          1                    1.000         TR
        3         1.000000          1                    1.000         SS

 COMBINED STEADY-STATE AND TRANSIENT SIMULATION



 
 # Basic package file for MODFLOW, generated by Flopy.                           
 THE FREE FORMAT OPTION HAS BEEN SELECTED

 OPENING FILE ON UNIT   99:
 ibound.ref                                                                                                                                                                                              



                     BOUNDARY ARRAY FOR LAYER   1
 READING ON UNIT   99 WITH FORMAT: (25I3)              

 AQUIFER HEAD WILL BE SET TO  -999.99     AT ALL NO-FLOW NODES (IBOUND=0).

 OPENING FILE ON UNIT   99:
 strt.ref                                                                                                                                                                                                



                       INITIAL HEAD FOR LAYER   1
 READING ON UNIT   99 WITH FORMAT: (10E12.4)           
 # Output control package file for MODFLOW, generated by Flopy.

 OUTPUT CONTROL IS SPECIFIED ONLY AT TIME STEPS FOR WHICH OUTPUT IS DESIRED
 HEADS WILL BE SAVED WITH FORMAT: (20E15.6)           
 COMPACT CELL-BY-CELL BUDGET FILES WILL BE WRITTEN
 AUXILIARY DATA WILL BE SAVED IN CELL-BY-CELL BUDGET FILES
 HEAD PRINT FORMAT CODE IS   0    DRAWDOWN PRINT FORMAT CODE IS   0
 HEADS WILL BE SAVED ON UNIT   51    DRAWDOWNS WILL BE SAVED ON UNIT   52

 LPF -- LAYER-PROPERTY FLOW PACKAGE, VERSION 7, 5/2/2005
         INPUT READ FROM UNIT   31
 # UPW for MODFLOW-NWT, generated by Flopy.
 CELL-BY-CELL FLOWS WILL BE SAVED ON UNIT   53
 HEAD AT CELLS THAT CONVERT TO DRY= -1.00000E+30
 No named parameters

   LAYER FLAGS:
 LAYER       LAYTYP        LAYAVG         CHANI        LAYVKA        LAYWET
 ---------------------------------------------------------------------------
    1             1             0     1.000E+00             0             0

   INTERPRETATION OF LAYER FLAGS:
                        INTERBLOCK     HORIZONTAL    DATA IN
         LAYER TYPE   TRANSMISSIVITY   ANISOTROPY   ARRAY VKA   WETTABILITY
 LAYER      (LAYTYP)      (LAYAVG)       (CHANI)      (LAYVKA)      (LAYWET)
 ---------------------------------------------------------------------------
    1   CONVERTIBLE      HARMONIC     1.000E+00    VERTICAL K  NON-WETTABLE

 WETTING CAPABILITY IS NOT ACTIVE IN ANY LAYER

 OPENING FILE ON UNIT   99:
 hk_Layer_1.ref                                                                                                                                                                                          



              HYD. COND. ALONG ROWS FOR LAYER   1
 READING ON UNIT   99 WITH FORMAT: (20G15.6)           

      VERTICAL HYD. COND. =   1.00000     FOR LAYER   1

 OPENING FILE ON UNIT   99:
 ss_Layer_1.ref                                                                                                                                                                                          



                   SPECIFIC STORAGE FOR LAYER   1
 READING ON UNIT   99 WITH FORMAT: (20G15.6)           

           SPECIFIC YIELD =  9.601139E-02 FOR LAYER   1

 WEL -- WELL PACKAGE FOR NWT VERSION 1.1.3,  8/01/2017 INPUT READ FROM UNIT   20
 # Well file for MODFLOW, generated by Flopy.
 No named parameters
 MAXIMUM OF      6 ACTIVE WELLS AT ONE TIME
 No named parameters


     0 Well parameters

 RIV -- RIVER PACKAGE, VERSION 7, 5/2/2005 INPUT READ FROM UNIT   18
 # RIV for MODFLOW, generated by Flopy.
 No named parameters
 MAXIMUM OF     40 ACTIVE RIVER REACHES AT ONE TIME


     0 River parameters

 RCH -- RECHARGE PACKAGE, VERSION 7, 5/2/2005 INPUT READ FROM UNIT   19
 # RCH for MODFLOW, generated by Flopy.
 No named parameters
 OPTION 3 -- RECHARGE TO HIGHEST ACTIVE NODE IN EACH VERTICAL COLUMN


     0 Recharge parameters

 PCG -- CONJUGATE-GRADIENT SOLUTION PACKAGE, VERSION 7, 5/2/2005
 MAXIMUM OF    100 CALLS OF SOLUTION ROUTINE
 MAXIMUM OF     25 INTERNAL ITERATIONS PER CALL TO SOLUTION ROUTINE
 MATRIX PRECONDITIONING TYPE :    1
 IHCOFADD option -- When an active cell is surrounded by dry cells, convert
 the cell to dry only if storage and head-dependent boundary flow are 0.



                                    SOLUTION BY THE CONJUGATE-GRADIENT METHOD
                                   -------------------------------------------
                    MAXIMUM NUMBER OF CALLS TO PCG ROUTINE =      100
                        MAXIMUM ITERATIONS PER CALL TO PCG =       25
                               MATRIX PRECONDITIONING TYPE =        1
        RELAXATION FACTOR (ONLY USED WITH PRECOND. TYPE 1) =    0.10000E+01
 PARAMETER OF POLYNOMIAL PRECOND. = 2 (2) OR IS CALCULATED :        2
                         HEAD CHANGE CRITERION FOR CLOSURE =    0.10000E-04
                     RESIDUAL CHANGE CRITERION FOR CLOSURE =    0.10000E+00
            PCG HEAD AND RESIDUAL CHANGE PRINTOUT INTERVAL =        5
     PRINTING FROM SOLVER IS LIMITED(1) OR SUPPRESSED (>1) =        0
                            STEADY-STATE DAMPING PARAMETER =    0.70000E+00
                               TRANSIENT DAMPING PARAMETER =    0.70000E+00
1
                            STRESS PERIOD NO.    1, LENGTH =   1.000000    
                            -----------------------------------------------

                              NUMBER OF TIME STEPS =     1

                               MULTIPLIER FOR DELT =     1.000

                            INITIAL TIME STEP SIZE =   1.000000    

 WELL NO.  LAYER   ROW   COL   STRESS RATE         
 --------------------------------------------------
      1      1      9     16       100.0    
      2      1     11     13       100.0    
      3      1     20     14       100.0    
      4      1     26     10       100.0    
      5      1     29      6       100.0    
      6      1     34     12       100.0    

      6 WELLS

 REACH NO.  LAYER   ROW   COL     STAGE      CONDUCTANCE     BOTTOM EL.         
 -------------------------------------------------------------------------------
      1      1      1     15       20.10          0.1226E+05       20.00    
      2      1      2     15       19.87           1939.           19.75    
      3      1      3     15       19.65           3042.           19.50    
      4      1      4     15       19.42           3624.           19.25    
      5      1      5     15       19.19           8718.           19.00    
      6      1      6     15       18.97           6077.           18.75    
      7      1      7     15       18.74           757.0           18.50    
      8      1      8     15       18.51           1859.           18.25    
      9      1      9     15       18.28           3731.           18.00    
     10      1     10     15       19.06           8560.           17.75    
     11      1     11     15       17.83           5577.           17.50    
     12      1     12     15       17.60           7363.           17.25    
     13      1     13     15       17.38          0.1474E+05       17.00    
     14      1     14     15       17.15           2046.           16.75    
     15      1     15     15       16.92           2813.           16.50    
     16      1     16     15       16.70          0.4500E+05       16.25    
     17      1     17     15       16.47           4214.           16.00    
     18      1     18     15       16.24          0.2064E+05       15.75    
     19      1     19     15       16.02           1183.           15.50    
     20      1     20     15       15.79           2620.           15.25    
     21      1     21     15       15.56           3698.           15.00    
     22      1     22     15       15.33           2028.           14.75    
     23      1     23     15       15.11           4681.           14.50    
     24      1     24     15       14.88           2612.           14.25    
     25      1     25     15       14.65           8067.           14.00    
     26      1     26     15       14.43           7017.           13.75    
     27      1     27     15       14.20           3711.           13.50    
     28      1     28     15       13.97           2380.           13.25    
     29      1     29     15       13.75           5269.           13.00    
     30      1     30     15       13.52           3742.           12.75    
     31      1     31     15       13.29           2089.           12.50    
     32      1     32     15       13.07          0.1410E+05       12.25    
     33      1     33     15       12.84           7299.           12.00    
     34      1     34     15       12.61           2827.           11.75    
     35      1     35     15       12.38           1587.           11.50    
     36      1     36     15       12.16           4315.           11.25    
     37      1     37     15       11.93          0.1082E+05       11.00    
     38      1     38     15       11.70          0.1266E+05       10.75    
     39      1     39     15       11.48           1734.           10.50    
     40      1     40     15       11.25           6178.           10.25    

     40 RIVER REACHES

 OPENING FILE ON UNIT   99:
 rech_0.ref                                                                                                                                                                                              



                           RECHARGE
 READING ON UNIT   99 WITH FORMAT: (20G15.6)           
 
 SOLVING FOR HEAD 


    15 CALLS TO PCG ROUTINE FOR TIME STEP     1 IN STRESS PERIOD    1
   182 TOTAL ITERATIONS

 MAXIMUM HEAD CHANGE FOR EACH ITERATION (1 INDICATES THE FIRST INNER ITERATION):

    HEAD CHANGE    HEAD CHANGE    HEAD CHANGE    HEAD CHANGE    HEAD CHANGE 
   LAYER,ROW,COL  LAYER,ROW,COL  LAYER,ROW,COL  LAYER,ROW,COL  LAYER,ROW,COL
 ---------------------------------------------------------------------------
  1  -54.34      0  -34.40      0   21.91      0   6.375      0  -3.535    
   (  1, 39, 11)  (  1,  9,  4)  (  1,  9,  4)  (  1,  8,  5)  (  1, 32,  1)
  0  -1.340      0 -0.5618      0 -0.3401      0  0.1250      0 -0.9721E-01
   (  1, 28,  5)  (  1, 24,  8)  (  1, 37,  5)  (  1,  7,  3)  (  1,  8,  4)
  0  0.5693E-01  0  0.1589E-01  0  0.1500E-01  0 -0.8208E-02  0  0.3162E-02
   (  1, 10,  1)  (  1, 32,  1)  (  1,  9,  4)  (  1,  9,  4)  (  1, 35,  4)
  0  0.1081E-02  0 -0.3700E-03  0 -0.1627E-03  0 -0.5146E-04  0 -0.3475E-04
   (  1, 27,  3)  (  1,  8,  3)  (  1, 14,  1)  (  1, 15, 11)  (  1, 12,  2)
  0  0.1253E-04  0  0.9739E-05  1  -14.42      0  -13.33      0  -6.098    
   (  1,  4,  2)  (  1,  9,  4)  (  1, 39, 11)  (  1,  9,  4)  (  1,  8,  5)
  0   2.345      0  -1.345      0 -0.4894      0 -0.2190      0 -0.1107    
   (  1,  8,  5)  (  1, 32,  1)  (  1, 27,  4)  (  1, 14,  1)  (  1,  7,  3)
  0  0.4274E-01  0 -0.2390E-01  0  0.1468E-01  0 -0.5492E-02  0  0.5011E-02
   (  1,  5,  1)  (  1, 31,  6)  (  1, 10,  1)  (  1,  9,  4)  (  1,  9,  4)
  0  0.2047E-02  0  0.8340E-03  0  0.3309E-03  0 -0.1198E-03  0 -0.4564E-04
   (  1, 29,  2)  (  1, 13,  2)  (  1, 32,  1)  (  1,  8,  3)  (  1, 14,  1)
  0 -0.1292E-04  0 -0.9309E-05  1   10.18      0  -7.490      0  -3.765    
   (  1, 15, 11)  (  1, 12,  2)  (  1,  9,  4)  (  1,  9,  4)  (  1,  8,  5)
  0 -0.8501      0 -0.6451      0 -0.1978      0 -0.1043      0 -0.5269E-01
   (  1,  3,  6)  (  1, 32,  1)  (  1, 28,  4)  (  1, 20,  4)  (  1,  8,  4)
  0 -0.1543E-01  0 -0.8814E-02  0 -0.3078E-02  0  0.2588E-02  0 -0.1981E-02
   (  1, 27,  7)  (  1, 33,  6)  (  1, 29,  6)  (  1,  9,  4)  (  1,  9,  1)
  0  0.7523E-03  0 -0.2312E-03  0  0.1290E-03  0  0.3810E-04  0  0.1801E-04
   (  1, 30,  2)  (  1,  4,  2)  (  1, 32,  1)  (  1, 19,  4)  (  1, 23,  9)
  0  0.8172E-05  1   2.062      0  -1.640      0 -0.7991      0 -0.3519    
   (  1, 29,  2)  (  1,  8,  5)  (  1,  8,  5)  (  1,  9,  4)  (  1, 30,  1)
  0 -0.2419      0 -0.6945E-01  0 -0.2997E-01  0 -0.1478E-01  0  0.5111E-02
   (  1, 32,  1)  (  1, 29,  5)  (  1, 19,  4)  (  1,  8,  4)  (  1,  6,  1)
  0 -0.3682E-02  0  0.1515E-02  0 -0.9350E-03  0  0.5208E-03  0  0.2939E-03
   (  1, 32,  6)  (  1, 10,  1)  (  1, 31,  3)  (  1,  9,  4)  (  1,  6,  5)
  0 -0.1060E-03  0  0.4614E-04  0  0.1622E-04  0  0.9086E-05  1  0.5227    
   (  1,  3,  5)  (  1,  4,  6)  (  1, 39, 14)  (  1, 23,  9)  (  1,  8,  6)
  0  0.5363      0 -0.2045      0 -0.1499      0 -0.6233E-01  0 -0.2487E-01
   (  1,  9,  4)  (  1, 26,  7)  (  1, 32,  1)  (  1, 32,  1)  (  1, 20,  4)
  0 -0.1526E-01  0 -0.6771E-02  0  0.3584E-02  0 -0.1577E-02  0  0.7402E-03
   (  1, 30,  5)  (  1,  8,  4)  (  1,  7,  3)  (  1, 14,  4)  (  1, 10,  1)
  0 -0.3160E-03  0  0.2129E-03  0  0.1210E-03  0 -0.4627E-04  0  0.1659E-04
   (  1, 31,  3)  (  1,  9,  4)  (  1,  6,  5)  (  1,  4,  2)  (  1,  4,  5)
  0 -0.6808E-05  1 -0.2006      0  0.2272      0  0.8232E-01  0 -0.6675E-01
   (  1, 10,  1)  (  1,  9,  4)  (  1,  9,  4)  (  1,  8,  5)  (  1,  8,  4)
  0 -0.2818E-01  0 -0.7933E-02  0 -0.5440E-02  0 -0.1906E-02  0 -0.8268E-03
   (  1, 32,  1)  (  1, 20,  4)  (  1, 30,  5)  (  1, 37,  5)  (  1, 28,  6)
  0  0.3255E-03  0  0.2103E-03  0 -0.1000E-03  0  0.8799E-04  0  0.3865E-04
   (  1,  7,  3)  (  1, 11,  1)  (  1,  9,  4)  (  1,  9,  4)  (  1,  5,  5)
  0 -0.1579E-04  0  0.6123E-05  1 -0.6127E-01  0  0.7023E-01  0  0.3577E-01
   (  1,  4,  2)  (  1,  3,  4)  (  1,  9,  4)  (  1,  9,  4)  (  1,  8,  5)
  0 -0.2425E-01  0 -0.1029E-01  0 -0.2500E-02  0 -0.1600E-02  0 -0.5623E-03
   (  1,  8,  5)  (  1, 32,  1)  (  1, 20,  4)  (  1, 30,  5)  (  1, 37,  5)
  0 -0.2586E-03  0 -0.1045E-03  0  0.7756E-04  0 -0.2617E-04  0  0.2691E-04
   (  1, 28,  6)  (  1, 35,  6)  (  1, 11,  1)  (  1,  9,  1)  (  1,  9,  4)
  0  0.1213E-04  0 -0.4716E-05  1  0.1542E-01  0  0.1537E-01  0 -0.7454E-02
   (  1,  5,  5)  (  1,  4,  2)  (  1, 22,  9)  (  1,  8,  5)  (  1,  8,  5)
  0 -0.9446E-02  0 -0.3310E-02  0 -0.8324E-03  0 -0.3377E-03  0 -0.1441E-03
   (  1,  9,  4)  (  1, 32,  1)  (  1, 21,  4)  (  1, 31,  5)  (  1, 37,  5)
  0 -0.6535E-04  0 -0.3418E-04  0  0.2178E-04  0  0.7460E-05  1  0.4712E-02
   (  1, 28,  6)  (  1, 35,  6)  (  1, 12,  1)  (  1, 32,  1)  (  1, 22, 10)
  0  0.4150E-02  0  0.4127E-02  0 -0.2126E-02  0 -0.9419E-03  0 -0.2488E-03
   (  1,  8,  5)  (  1,  9,  4)  (  1,  9,  4)  (  1, 32,  1)  (  1, 30,  7)
  0 -0.1172E-03  0  0.4727E-04  0  0.1922E-04  0 -0.1072E-04  0  0.4197E-05
   (  1,  8,  5)  (  1, 14,  1)  (  1, 29,  2)  (  1, 35,  6)  (  1,  2,  5)
  1  0.1522E-02  0 -0.1981E-02  0 -0.9587E-03  0 -0.4090E-03  0 -0.2379E-03
   (  1,  9,  3)  (  1,  9,  4)  (  1, 22,  9)  (  1, 26,  2)  (  1, 32,  1)
  0  0.6499E-04  0 -0.4871E-04  0  0.1271E-04  0 -0.5442E-05  1  0.6930E-03
   (  1,  9,  4)  (  1,  8,  5)  (  1,  8,  5)  (  1, 12, 10)  (  1,  9,  4)
  0 -0.7222E-03  0 -0.2862E-03  0 -0.1109E-03  0 -0.6683E-04  0 -0.1916E-04
   (  1,  9,  4)  (  1, 22, 10)  (  1, 27,  3)  (  1, 32,  1)  (  1, 35,  4)
  0  0.7623E-05  1  0.2177E-03  0 -0.2164E-03  0 -0.7726E-04  0  0.4478E-04
   (  1,  9,  4)  (  1,  9,  4)  (  1,  9,  4)  (  1,  8,  5)  (  1,  8,  5)
  0 -0.2035E-04  0 -0.6287E-05  1  0.7927E-04  0 -0.6947E-04  0 -0.4156E-04
   (  1,  9,  4)  (  1, 30,  7)  (  1,  9,  4)  (  1,  9,  4)  (  1,  8,  5)
  0  0.1878E-04  0 -0.5662E-05  1  0.2174E-04  0 -0.2362E-04  0 -0.1317E-04
   (  1,  8,  5)  (  1,  9,  4)  (  1,  9,  4)  (  1,  9,  4)  (  1,  8,  5)
  0  0.6314E-05  1  0.6252E-05
   (  1,  8,  5)  (  1, 17, 11)

 MAXIMUM RESIDUAL FOR EACH ITERATION (1 INDICATES THE FIRST INNER ITERATION):

    RESIDUAL       RESIDUAL       RESIDUAL       RESIDUAL       RESIDUAL    
   LAYER,ROW,COL  LAYER,ROW,COL  LAYER,ROW,COL  LAYER,ROW,COL  LAYER,ROW,COL
 ---------------------------------------------------------------------------
  1  0.1388E+05  0   5818.      0   2884.      0   1046.      0  -567.0    
   (  1, 16, 15)  (  1, 16, 15)  (  1, 16, 15)  (  1, 16, 15)  (  1, 39, 15)
  0  -411.4      0  -283.7      0  -156.1      0  -86.20      0  -42.72    
   (  1, 39, 15)  (  1, 39, 15)  (  1, 39, 15)  (  1, 39, 15)  (  1, 39, 15)
  0  -18.30      0  -7.078      0   3.902      0   2.328      0  0.9120    
   (  1, 39, 15)  (  1, 39, 15)  (  1, 16, 15)  (  1, 16, 15)  (  1, 16, 15)
  0  0.3527      0  0.1448      0  0.6161E-01  0 -0.3073E-01  0 -0.1488E-01
   (  1, 16, 15)  (  1, 16, 15)  (  1, 16, 15)  (  1, 38, 15)  (  1, 38, 15)
  0 -0.6806E-02  0 -0.4854E-02  1   2922.      0   1640.      0   730.7    
   (  1, 38, 15)  (  1, 38, 15)  (  1, 16, 15)  (  1, 16, 15)  (  1, 16, 15)
  0   245.4      0  -130.0      0  -94.19      0  -64.59      0  -38.35    
   (  1, 16, 15)  (  1, 39, 15)  (  1, 39, 15)  (  1, 39, 15)  (  1, 39, 15)
  0  -24.29      0  -12.47      0  -5.499      0  -2.430      0  -1.833    
   (  1, 39, 15)  (  1, 39, 15)  (  1, 39, 15)  (  1, 39, 15)  (  1, 39, 15)
  0 -0.7020      0 -0.2504      0  0.8641E-01  0  0.3432E-01  0  0.1398E-01
   (  1, 39, 15)  (  1, 39, 15)  (  1, 16, 15)  (  1, 16, 15)  (  1, 16, 15)
  0 -0.6617E-02  0 -0.3201E-02  1   1453.      0   610.5      0   255.5    
   (  1, 38, 15)  (  1, 38, 15)  (  1, 16, 15)  (  1, 16, 15)  (  1, 16, 15)
  0   92.44      0   35.79      0  -22.67      0  -14.93      0  -9.183    
   (  1, 16, 15)  (  1, 16, 15)  (  1, 39, 15)  (  1, 39, 15)  (  1, 39, 15)
  0  -5.930      0  -3.546      0  -1.649      0  -1.337      0 -0.6298    
   (  1, 39, 15)  (  1, 39, 15)  (  1, 39, 15)  (  1, 39, 15)  (  1, 39, 15)
  0 -0.2769      0 -0.1163      0 -0.3688E-01  0 -0.1187E-01  0  0.4861E-02
   (  1, 39, 15)  (  1, 39, 15)  (  1, 39, 15)  (  1, 39, 15)  (  1, 16, 15)
  0  0.1994E-02  1   451.9      0   161.3      0   102.3      0   36.65    
   (  1, 16, 15)  (  1, 16, 15)  (  1, 16, 15)  (  1, 16, 15)  (  1, 16, 15)
  0   13.80      0   7.013      0  -4.096      0  -2.676      0  -1.820    
   (  1, 16, 15)  (  1, 16, 15)  (  1, 39, 15)  (  1, 39, 15)  (  1, 39, 15)
  0  -1.132      0 -0.5545      0 -0.2713      0 -0.2167      0 -0.1151    
   (  1, 39, 15)  (  1, 39, 15)  (  1, 39, 15)  (  1, 39, 15)  (  1, 39, 15)
  0 -0.5426E-01  0 -0.2145E-01  0 -0.8177E-02  0 -0.2831E-02  1   227.3    
   (  1, 39, 15)  (  1, 39, 15)  (  1, 39, 15)  (  1, 39, 15)  (  1, 16, 15)
  0   116.5      0   40.56      0   12.73      0   5.192      0   2.771    
   (  1, 16, 15)  (  1, 16, 15)  (  1, 16, 15)  (  1, 16, 15)  (  1, 16, 15)
  0   1.456      0 -0.7734      0 -0.5227      0 -0.3474      0 -0.1870    
   (  1, 16, 15)  (  1, 39, 15)  (  1, 39, 15)  (  1, 39, 15)  (  1, 39, 15)
  0 -0.9687E-01  0 -0.7542E-01  0 -0.3942E-01  0 -0.1946E-01  0 -0.8615E-02
   (  1, 39, 15)  (  1, 39, 15)  (  1, 39, 15)  (  1, 39, 15)  (  1, 39, 15)
  0 -0.3461E-02  1   96.97      0   50.02      0   17.58      0   5.127    
   (  1, 39, 15)  (  1, 16, 15)  (  1, 16, 15)  (  1, 16, 15)  (  1, 16, 15)
  0   1.946      0   1.053      0  0.5158      0  0.2582      0 -0.1661    
   (  1, 16, 15)  (  1, 16, 15)  (  1, 16, 15)  (  1, 16, 15)  (  1, 39, 15)
  0 -0.1054      0 -0.5988E-01  0 -0.3662E-01  0 -0.2839E-01  0 -0.1241E-01
   (  1, 39, 15)  (  1, 39, 15)  (  1, 39, 15)  (  1, 39, 15)  (  1, 39, 15)
  0 -0.6024E-02  0 -0.2715E-02  1   31.02      0   17.93      0   6.994    
   (  1, 39, 15)  (  1, 39, 15)  (  1, 16, 15)  (  1, 16, 15)  (  1, 16, 15)
  0   1.886      0  0.6442      0  0.3422      0  0.1738      0  0.9023E-01
   (  1, 16, 15)  (  1, 16, 15)  (  1, 16, 15)  (  1, 16, 15)  (  1, 16, 15)
  0 -0.5243E-01  0 -0.3140E-01  0 -0.1805E-01  0 -0.1116E-01  0 -0.8869E-02
   (  1, 39, 15)  (  1, 39, 15)  (  1, 39, 15)  (  1, 39, 15)  (  1, 39, 15)
  0 -0.3795E-02  0 -0.1745E-02  1   9.849      0   3.558      0   1.971    
   (  1, 39, 15)  (  1, 39, 15)  (  1, 16, 15)  (  1, 16, 15)  (  1, 16, 15)
  0  0.6389      0  0.2017      0  0.9232E-01  0  0.5335E-01  0  0.2658E-01
   (  1, 16, 15)  (  1, 16, 15)  (  1, 16, 15)  (  1, 16, 15)  (  1, 16, 15)
  0  0.1610E-01  0 -0.9318E-02  0 -0.5176E-02  0 -0.2931E-02  1   3.691    
   (  1, 16, 15)  (  1, 39, 15)  (  1, 39, 15)  (  1, 39, 15)  (  1, 16, 15)
  0   2.342      0  0.7448      0  0.2048      0  0.6478E-01  0  0.2778E-01
   (  1, 16, 15)  (  1, 16, 15)  (  1, 16, 15)  (  1, 16, 15)  (  1, 16, 15)
  0  0.1701E-01  0  0.8080E-02  0  0.4783E-02  0 -0.2774E-02  0 -0.1483E-02
   (  1, 16, 15)  (  1, 16, 15)  (  1, 16, 15)  (  1, 39, 15)  (  1, 39, 15)
  1   1.440      0  0.8215      0  0.2232      0  0.6416E-01  0  0.2137E-01
   (  1, 16, 15)  (  1, 16, 15)  (  1, 16, 15)  (  1, 16, 15)  (  1, 16, 15)
  0  0.9077E-02  0  0.5404E-02  0  0.2460E-02  0  0.1108E-02  1  0.5058    
   (  1, 16, 15)  (  1, 16, 15)  (  1, 16, 15)  (  1, 16, 15)  (  1, 16, 15)
  0  0.2724      0  0.7343E-01  0  0.2214E-01  0  0.6710E-02  0  0.2708E-02
   (  1, 16, 15)  (  1, 16, 15)  (  1, 16, 15)  (  1, 16, 15)  (  1, 16, 15)
  0  0.1496E-02  1  0.1559      0  0.8853E-01  0  0.2536E-01  0  0.7128E-02
   (  1, 16, 15)  (  1, 16, 15)  (  1, 16, 15)  (  1, 16, 15)  (  1, 16, 15)
  0  0.1963E-02  0  0.8236E-03  1  0.4780E-01  0  0.2909E-01  0  0.1200E-01
   (  1, 16, 15)  (  1, 16, 15)  (  1, 16, 15)  (  1, 16, 15)  (  1, 16, 15)
  0  0.1908E-02  0  0.5374E-03  1  0.1474E-01  0  0.8544E-02  0  0.4475E-02
   (  1, 16, 15)  (  1, 16, 15)  (  1, 16, 15)  (  1, 16, 15)  (  1, 16, 15)
  0  0.6984E-03  1  0.8626E-02
   (  1, 16, 15)  (  1, 16, 15)



 OUTPUT CONTROL FOR STRESS PERIOD    1   TIME STEP    1
    SAVE HEAD FOR ALL LAYERS
    SAVE BUDGET
 UBDSV2 SAVING "   CONSTANT HEAD" ON UNIT  53 AT TIME STEP     1, STRESS PERIOD   1
 UBDSV1 SAVING "FLOW RIGHT FACE " ON UNIT  53 AT TIME STEP     1, STRESS PERIOD   1
 UBDSV1 SAVING "FLOW FRONT FACE " ON UNIT  53 AT TIME STEP     1, STRESS PERIOD   1

 HEAD WILL BE SAVED ON UNIT   51 AT END OF TIME STEP    1, STRESS PERIOD    1
1
  VOLUMETRIC BUDGET FOR ENTIRE MODEL AT END OF TIME STEP    1, STRESS PERIOD   1
  ------------------------------------------------------------------------------

     CUMULATIVE VOLUMES      L**3       RATES FOR THIS TIME STEP      L**3/T
     ------------------                 ------------------------

           IN:                                      IN:
           ---                                      ---
             STORAGE =           0.0000               STORAGE =           0.0000
       CONSTANT HEAD =           0.0000         CONSTANT HEAD =           0.0000
               WELLS =         600.0000                 WELLS =         600.0000
       RIVER LEAKAGE =         236.7326         RIVER LEAKAGE =         236.7326
            RECHARGE =        6334.1001              RECHARGE =        6334.1001

            TOTAL IN =        7170.8325              TOTAL IN =        7170.8325

          OUT:                                     OUT:
          ----                                     ----
             STORAGE =           0.0000               STORAGE =           0.0000
       CONSTANT HEAD =         441.9863         CONSTANT HEAD =         441.9863
               WELLS =           0.0000                 WELLS =           0.0000
       RIVER LEAKAGE =        6729.0063         RIVER LEAKAGE =        6729.0063
            RECHARGE =           0.0000              RECHARGE =           0.0000

           TOTAL OUT =        7170.9927             TOTAL OUT =        7170.9927

            IN - OUT =          -0.1602              IN - OUT =          -0.1602

 PERCENT DISCREPANCY =          -0.00     PERCENT DISCREPANCY =          -0.00






         TIME SUMMARY AT END OF TIME STEP    1 IN STRESS PERIOD    1
                    SECONDS     MINUTES      HOURS       DAYS        YEARS
                    -----------------------------------------------------------
   TIME STEP LENGTH  86400.      1440.0      24.000      1.0000     2.73785E-03
 STRESS PERIOD TIME  86400.      1440.0      24.000      1.0000     2.73785E-03
         TOTAL TIME  86400.      1440.0      24.000      1.0000     2.73785E-03
1
1
                            STRESS PERIOD NO.    2, LENGTH =   1825.000    
                            -----------------------------------------------

                              NUMBER OF TIME STEPS =     1

                               MULTIPLIER FOR DELT =     1.000

                            INITIAL TIME STEP SIZE =   1825.000    

 WELL NO.  LAYER   ROW   COL   STRESS RATE         
 --------------------------------------------------
      1      1      9     16       100.0    
      2      1     11     13       100.0    
      3      1     20     14       100.0    
      4      1     26     10       100.0    
      5      1     29      6       100.0    
      6      1     34     12       100.0    

      6 WELLS

 REUSING NON-PARAMETER RIVER REACHES FROM LAST STRESS PERIOD

     40 RIVER REACHES

 OPENING FILE ON UNIT   99:
 rech_1.ref                                                                                                                                                                                              



                           RECHARGE
 READING ON UNIT   99 WITH FORMAT: (20G15.6)           
 
 SOLVING FOR HEAD 


    10 CALLS TO PCG ROUTINE FOR TIME STEP     1 IN STRESS PERIOD    2
    63 TOTAL ITERATIONS

 MAXIMUM HEAD CHANGE FOR EACH ITERATION (1 INDICATES THE FIRST INNER ITERATION):

    HEAD CHANGE    HEAD CHANGE    HEAD CHANGE    HEAD CHANGE    HEAD CHANGE 
   LAYER,ROW,COL  LAYER,ROW,COL  LAYER,ROW,COL  LAYER,ROW,COL  LAYER,ROW,COL
 ---------------------------------------------------------------------------
  1 -0.7593      0 -0.1295      0 -0.4293E-01  0 -0.1537E-01  0 -0.4358E-02
   (  1,  9,  4)  (  1,  1, 12)  (  1,  2,  5)  (  1,  2,  1)  (  1,  4,  1)
  0  0.1737E-02  0  0.5943E-03  0 -0.2387E-03  0 -0.7698E-04  0  0.2571E-04
   (  1,  9,  4)  (  1,  8,  5)  (  1,  8,  5)  (  1,  8,  1)  (  1, 32,  1)
  0 -0.5851E-05  1 -0.1680      0 -0.3821E-01  0 -0.1668E-01  0 -0.4345E-02
   (  1,  9,  4)  (  1,  3,  7)  (  1,  1, 13)  (  1,  2,  6)  (  1,  3,  3)
  0 -0.2571E-02  0 -0.6651E-03  0  0.1418E-03  0 -0.5444E-04  0  0.1763E-04
   (  1,  9,  4)  (  1,  8,  5)  (  1,  8,  5)  (  1,  4,  2)  (  1, 29,  4)
  0  0.6310E-05  1 -0.4621E-01  0 -0.1285E-01  0 -0.5457E-02  0  0.1915E-02
   (  1, 32,  1)  (  1, 22,  9)  (  1,  8,  5)  (  1,  9,  3)  (  1,  9,  4)
  0 -0.6177E-03  0 -0.2084E-03  0 -0.5020E-04  0  0.1341E-04  0  0.5277E-05
   (  1,  9,  4)  (  1,  8,  5)  (  1,  3,  5)  (  1, 27,  6)  (  1, 29,  4)
  1 -0.1285E-01  0 -0.4186E-02  0 -0.2155E-02  0  0.6401E-03  0  0.1442E-03
   (  1, 22, 10)  (  1,  8,  5)  (  1,  9,  4)  (  1,  9,  4)  (  1,  8,  5)
  0 -0.5784E-04  0 -0.1529E-04  0  0.3944E-05  1 -0.3641E-02  0 -0.1199E-02
   (  1,  8,  5)  (  1,  2,  4)  (  1, 27,  6)  (  1,  4, 10)  (  1,  8,  5)
  0 -0.6800E-03  0  0.1904E-03  0  0.4756E-04  0 -0.1488E-04  0  0.3893E-05
   (  1,  9,  4)  (  1,  9,  4)  (  1,  8,  5)  (  1,  8,  5)  (  1, 11, 10)
  1 -0.1000E-02  0 -0.3131E-03  0 -0.1905E-03  0  0.5473E-04  0  0.1523E-04
   (  1,  4, 10)  (  1,  8,  5)  (  1,  9,  4)  (  1,  9,  4)  (  1,  8,  5)
  0 -0.3730E-05  1 -0.2716E-03  0 -0.7738E-04  0 -0.5024E-04  0  0.1564E-04
   (  1,  8,  5)  (  1,  4, 11)  (  1,  9,  9)  (  1,  9,  4)  (  1,  9,  4)
  0  0.4671E-05  1 -0.7503E-04  0  0.2141E-04  0 -0.1213E-04  0  0.4191E-05
   (  1,  8,  5)  (  1, 23, 13)  (  1,  9,  4)  (  1,  9,  4)  (  1,  9,  4)
  1 -0.2148E-04  0  0.7795E-05  1  0.6884E-05
   (  1, 23, 13)  (  1,  9,  4)  (  1,  8,  8)

 MAXIMUM RESIDUAL FOR EACH ITERATION (1 INDICATES THE FIRST INNER ITERATION):

    RESIDUAL       RESIDUAL       RESIDUAL       RESIDUAL       RESIDUAL    
   LAYER,ROW,COL  LAYER,ROW,COL  LAYER,ROW,COL  LAYER,ROW,COL  LAYER,ROW,COL
 ---------------------------------------------------------------------------
  1   12.93      0   6.804      0   2.917      0  0.9653      0  0.3279    
   (  1,  8, 15)  (  1,  1, 15)  (  1,  1, 15)  (  1,  1, 15)  (  1,  1, 15)
  0  0.1242      0  0.4874E-01  0  0.1917E-01  0  0.5795E-02  0  0.2080E-02
   (  1,  1, 15)  (  1,  1, 15)  (  1,  1, 15)  (  1,  1, 15)  (  1,  1, 15)
  0  0.8512E-03  1   4.431      0   2.283      0  0.9065      0  0.3525    
   (  1,  1, 15)  (  1,  8, 15)  (  1,  1, 15)  (  1,  1, 15)  (  1,  1, 15)
  0  0.1186      0  0.4193E-01  0  0.1582E-01  0  0.5428E-02  0  0.1609E-02
   (  1,  1, 15)  (  1,  1, 15)  (  1,  1, 15)  (  1,  1, 15)  (  1,  1, 15)
  0  0.5958E-03  1   1.467      0  0.7567      0  0.2972      0  0.1213    
   (  1,  1, 15)  (  1,  8, 15)  (  1,  1, 15)  (  1,  1, 15)  (  1,  1, 15)
  0  0.4370E-01  0  0.1468E-01  0  0.5219E-02  0  0.1704E-02  0  0.5666E-03
   (  1,  1, 15)  (  1,  1, 15)  (  1,  1, 15)  (  1,  1, 15)  (  1,  1, 15)
  1  0.4765      0  0.2471      0  0.9517E-01  0  0.3851E-01  0  0.1512E-01
   (  1,  8, 15)  (  1,  1, 15)  (  1,  1, 15)  (  1,  1, 15)  (  1,  1, 15)
  0  0.4992E-02  0  0.1669E-02  0  0.5599E-03  1  0.1529      0  0.7923E-01
   (  1,  1, 15)  (  1,  1, 15)  (  1,  1, 15)  (  1,  8, 15)  (  1,  1, 15)
  0  0.2934E-01  0  0.1168E-01  0  0.4803E-02  0  0.1572E-02  0  0.4989E-03
   (  1,  1, 15)  (  1,  1, 15)  (  1,  1, 15)  (  1,  1, 15)  (  1,  1, 15)
  1  0.4869E-01  0  0.2495E-01  0  0.8677E-02  0  0.3396E-02  0  0.1427E-02
   (  1,  8, 15)  (  1,  8, 15)  (  1,  1, 15)  (  1,  1, 15)  (  1,  1, 15)
  0  0.4599E-03  1  0.1541E-01  0  0.8084E-02  0  0.2533E-02  0  0.9746E-03
   (  1,  1, 15)  (  1,  8, 15)  (  1,  8, 15)  (  1,  6, 15)  (  1,  6, 15)
  0  0.4026E-03  1  0.4870E-02  0  0.2577E-02  0  0.7607E-03  0  0.2792E-03
   (  1,  1, 15)  (  1,  8, 15)  (  1,  8, 15)  (  1,  6, 15)  (  1,  6, 15)
  1  0.1559E-02  0  0.8139E-03  1  0.6855E-03
   (  1,  8, 15)  (  1,  8, 15)  (  1,  8, 15)



 OUTPUT CONTROL FOR STRESS PERIOD    2   TIME STEP    1
    SAVE HEAD FOR ALL LAYERS
    SAVE BUDGET
 UBDSV1 SAVING "         STORAGE" ON UNIT  53 AT TIME STEP     1, STRESS PERIOD   2
 UBDSV2 SAVING "   CONSTANT HEAD" ON UNIT  53 AT TIME STEP     1, STRESS PERIOD   2
 UBDSV1 SAVING "FLOW RIGHT FACE " ON UNIT  53 AT TIME STEP     1, STRESS PERIOD   2
 UBDSV1 SAVING "FLOW FRONT FACE " ON UNIT  53 AT TIME STEP     1, STRESS PERIOD   2

 HEAD WILL BE SAVED ON UNIT   51 AT END OF TIME STEP    1, STRESS PERIOD    2
1
  VOLUMETRIC BUDGET FOR ENTIRE MODEL AT END OF TIME STEP    1, STRESS PERIOD   2
  ------------------------------------------------------------------------------

     CUMULATIVE VOLUMES      L**3       RATES FOR THIS TIME STEP      L**3/T
     ------------------                 ------------------------

           IN:                                      IN:
           ---                                      ---
             STORAGE =     2426150.2500               STORAGE =        1329.3973
       CONSTANT HEAD =           0.0000         CONSTANT HEAD =           0.0000
               WELLS =     1095600.0000                 WELLS =         600.0000
       RIVER LEAKAGE =      517828.1875         RIVER LEAKAGE =         283.6118
            RECHARGE =     6051066.0000              RECHARGE =        3312.1819

            TOTAL IN =    10090644.0000              TOTAL IN =        5525.1914

          OUT:                                     OUT:
          ----                                     ----
             STORAGE =           0.0000               STORAGE =           0.0000
       CONSTANT HEAD =      569481.5000         CONSTANT HEAD =         311.8025
               WELLS =           0.0000                 WELLS =           0.0000
       RIVER LEAKAGE =     9521253.0000         RIVER LEAKAGE =        5213.4380
            RECHARGE =           0.0000              RECHARGE =           0.0000

           TOTAL OUT =    10090734.0000             TOTAL OUT =        5525.2402

            IN - OUT =         -90.0000              IN - OUT =      -4.8828E-02

 PERCENT DISCREPANCY =          -0.00     PERCENT DISCREPANCY =          -0.00






         TIME SUMMARY AT END OF TIME STEP    1 IN STRESS PERIOD    2
                    SECONDS     MINUTES      HOURS       DAYS        YEARS
                    -----------------------------------------------------------
   TIME STEP LENGTH 1.57680E+08 2.62800E+06  43800.      1825.0      4.9966    
 STRESS PERIOD TIME 1.57680E+08 2.62800E+06  43800.      1825.0      4.9966    
         TOTAL TIME 1.57766E+08 2.62944E+06  43824.      1826.0      4.9993    
1
1
                            STRESS PERIOD NO.    3, LENGTH =   1.000000    
                            -----------------------------------------------

                              NUMBER OF TIME STEPS =     1

                               MULTIPLIER FOR DELT =     1.000

                            INITIAL TIME STEP SIZE =   1.000000    

 WELL NO.  LAYER   ROW   COL   STRESS RATE         
 --------------------------------------------------
      1      1      9     16       100.0    
      2      1     11     13       100.0    
      3      1     20     14       100.0    
      4      1     26     10       100.0    
      5      1     29      6       100.0    
      6      1     34     12       100.0    

      6 WELLS

 REUSING NON-PARAMETER RIVER REACHES FROM LAST STRESS PERIOD

     40 RIVER REACHES

 OPENING FILE ON UNIT   99:
 rech_2.ref                                                                                                                                                                                              



                           RECHARGE
 READING ON UNIT   99 WITH FORMAT: (20G15.6)           
 
 SOLVING FOR HEAD 


    11 CALLS TO PCG ROUTINE FOR TIME STEP     1 IN STRESS PERIOD    3
   108 TOTAL ITERATIONS

 MAXIMUM HEAD CHANGE FOR EACH ITERATION (1 INDICATES THE FIRST INNER ITERATION):

    HEAD CHANGE    HEAD CHANGE    HEAD CHANGE    HEAD CHANGE    HEAD CHANGE 
   LAYER,ROW,COL  LAYER,ROW,COL  LAYER,ROW,COL  LAYER,ROW,COL  LAYER,ROW,COL
 ---------------------------------------------------------------------------
  1  -2.554      0  -1.663      0 -0.9320      0 -0.3271      0 -0.1715    
   (  1,  9,  4)  (  1,  8,  5)  (  1, 32,  1)  (  1, 21,  1)  (  1,  1,  3)
  0 -0.8853E-01  0 -0.4232E-01  0 -0.2269E-01  0  0.7773E-02  0 -0.5759E-02
   (  1,  2,  3)  (  1,  4,  1)  (  1,  2,  1)  (  1, 32,  1)  (  1,  4,  1)
  0 -0.2464E-02  0 -0.1905E-02  0 -0.9970E-03  0  0.5261E-03  0  0.1441E-03
   (  1,  1,  2)  (  1,  9,  3)  (  1,  1,  2)  (  1, 32,  1)  (  1,  8,  5)
  0  0.5794E-04  0 -0.3424E-04  0  0.1507E-04  0 -0.4312E-05  1 -0.2961    
   (  1, 35,  4)  (  1,  2,  1)  (  1,  8,  4)  (  1,  2,  1)  (  1, 26,  5)
  0 -0.1797      0 -0.8479E-01  0 -0.3369E-01  0 -0.2838E-01  0 -0.8383E-02
   (  1,  9,  4)  (  1, 33,  2)  (  1, 27,  4)  (  1,  8,  5)  (  1,  2,  6)
  0  0.4910E-02  0 -0.3158E-02  0 -0.1051E-02  0 -0.8221E-03  0  0.3159E-03
   (  1, 31,  5)  (  1, 10,  1)  (  1,  2,  7)  (  1,  9,  1)  (  1,  9,  4)
  0 -0.3014E-03  0 -0.8191E-04  0 -0.5928E-04  0  0.2126E-04  0 -0.1231E-04
   (  1,  6,  2)  (  1,  5,  5)  (  1,  9,  3)  (  1,  9,  3)  (  1,  4,  6)
  0  0.3529E-05  1  0.1030      0  0.4352E-01  0 -0.5550E-01  0 -0.1287E-01
   (  1,  7, 10)  (  1,  9,  4)  (  1,  8,  5)  (  1,  8,  5)  (  1, 35,  4)
  0  0.7572E-02  0  0.3900E-02  0  0.1732E-02  0  0.8044E-03  0  0.4660E-03
   (  1, 26,  1)  (  1, 13,  3)  (  1, 21,  2)  (  1,  2,  1)  (  1,  2,  1)
  0  0.1857E-03  0  0.9301E-04  0  0.4549E-04  0 -0.4388E-04  0  0.2418E-04
   (  1, 34,  3)  (  1, 20,  3)  (  1, 32,  3)  (  1,  9,  4)  (  1, 16,  4)
  0 -0.5478E-05  1  0.3506E-01  0 -0.1324E-01  0 -0.1390E-01  0  0.3474E-02
   (  1, 11,  1)  (  1,  9,  4)  (  1,  9,  4)  (  1,  8,  5)  (  1, 20,  1)
  0  0.3145E-02  0  0.1330E-02  0  0.6301E-03  0  0.3209E-03  0 -0.1037E-03
   (  1, 25,  1)  (  1, 15,  4)  (  1, 25,  1)  (  1,  2,  1)  (  1, 10,  1)
  0  0.6241E-04  0  0.3900E-04  0 -0.2715E-04  0  0.1065E-04  0  0.6135E-05
   (  1, 34,  3)  (  1, 20,  4)  (  1,  9,  4)  (  1, 32,  3)  (  1,  1,  2)
  1  0.7985E-02  0 -0.3221E-02  0 -0.4109E-02  0  0.1101E-02  0  0.9291E-03
   (  1,  8,  5)  (  1,  8,  5)  (  1,  9,  4)  (  1, 23,  5)  (  1, 25,  1)
  0  0.2923E-03  0  0.2081E-03  0  0.7994E-04  0 -0.4529E-04  0  0.1227E-04
   (  1, 32,  1)  (  1, 26,  1)  (  1,  2,  1)  (  1, 11,  1)  (  1,  4,  1)
  0 -0.7553E-05  1  0.1735E-02  0  0.1967E-02  0 -0.8443E-03  0  0.2715E-03
   (  1,  9,  4)  (  1,  8,  5)  (  1,  9,  4)  (  1,  9,  4)  (  1, 24,  4)
  0  0.2002E-03  0  0.1213E-03  0 -0.4020E-04  0  0.2106E-04  0 -0.1052E-04
   (  1,  2,  3)  (  1, 32,  1)  (  1,  8,  4)  (  1,  3,  1)  (  1, 16,  1)
  0 -0.6928E-05  1 -0.3271E-03  0  0.4790E-03  0  0.1339E-03  0  0.7934E-04
   (  1, 30,  4)  (  1,  9,  4)  (  1,  9,  4)  (  1, 32,  1)  (  1, 26,  4)
  0  0.5169E-04  0  0.3294E-04  0  0.1185E-04  0 -0.8319E-05  1 -0.1272E-03
   (  1,  3,  2)  (  1, 28,  1)  (  1, 32,  1)  (  1,  8,  4)  (  1,  9,  4)
  0  0.9417E-04  0  0.5520E-04  0 -0.3382E-04  0  0.1394E-04  0  0.9959E-05
   (  1,  9,  4)  (  1,  8,  5)  (  1,  7,  3)  (  1, 27,  9)  (  1, 29,  3)
  1 -0.4598E-04  0 -0.2760E-04  0  0.2285E-04  0 -0.1194E-04  0  0.3904E-05
   (  1,  9,  4)  (  1,  8,  5)  (  1,  8,  5)  (  1,  9,  4)  (  1, 27,  9)
  1 -0.1498E-04  0 -0.7931E-05  1  0.6452E-05
   (  1,  9,  4)  (  1,  8,  5)  (  1,  8,  5)

 MAXIMUM RESIDUAL FOR EACH ITERATION (1 INDICATES THE FIRST INNER ITERATION):

    RESIDUAL       RESIDUAL       RESIDUAL       RESIDUAL       RESIDUAL    
   LAYER,ROW,COL  LAYER,ROW,COL  LAYER,ROW,COL  LAYER,ROW,COL  LAYER,ROW,COL
 ---------------------------------------------------------------------------
  1  -50.24      0   22.71      0   19.03      0   14.56      0   10.30    
   (  1,  9,  4)  (  1,  1,  6)  (  1,  1, 12)  (  1,  1, 13)  (  1,  1, 15)
  0   8.279      0   4.666      0   2.090      0   1.182      0  0.6095    
   (  1,  1, 15)  (  1,  1, 15)  (  1,  1, 15)  (  1,  1, 15)  (  1,  1, 15)
  0  0.2908      0  0.2342      0  0.1148      0  0.5469E-01  0  0.2528E-01
   (  1,  1, 15)  (  1,  1, 15)  (  1,  1, 15)  (  1,  1, 15)  (  1,  1, 15)
  0  0.1061E-01  0  0.4284E-02  0  0.1910E-02  0  0.9384E-03  1   4.341    
   (  1,  1, 15)  (  1,  1, 15)  (  1,  1, 15)  (  1,  1, 15)  (  1,  1, 12)
  0   4.348      0   3.498      0   2.520      0   2.108      0   1.400    
   (  1,  1, 12)  (  1,  1, 13)  (  1,  1, 15)  (  1,  1, 15)  (  1,  1, 15)
  0  0.7691      0  0.3522      0  0.1581      0  0.6938E-01  0  0.4310E-01
   (  1,  1, 15)  (  1,  1, 15)  (  1,  1, 15)  (  1,  1, 15)  (  1,  1, 15)
  0  0.2104E-01  0  0.1124E-01  0  0.8696E-02  0  0.3904E-02  0  0.1741E-02
   (  1,  1, 15)  (  1,  1, 15)  (  1,  1, 15)  (  1,  1, 15)  (  1,  1, 15)
  0  0.7528E-03  1  -2.474      0  -1.341      0   1.053      0  0.6777    
   (  1,  1, 15)  (  1, 29,  6)  (  1, 29,  6)  (  1, 28, 15)  (  1, 25, 15)
  0  0.5252      0  0.3517      0  0.1704      0  0.8197E-01  0  0.3926E-01
   (  1,  1, 15)  (  1,  1, 15)  (  1,  1, 15)  (  1,  1, 15)  (  1,  1, 15)
  0  0.1757E-01  0  0.7564E-02  0  0.4314E-02  0  0.3293E-02  0  0.1475E-02
   (  1,  1, 15)  (  1,  1, 15)  (  1,  1, 15)  (  1,  1, 15)  (  1,  1, 15)
  0  0.5976E-03  1 -0.8016      0 -0.4723      0  0.3160      0  0.2176    
   (  1,  1, 15)  (  1, 29,  6)  (  1, 29,  6)  (  1, 31, 15)  (  1, 31, 15)
  0  0.1283      0  0.8171E-01  0  0.3689E-01  0  0.1608E-01  0  0.7838E-02
   (  1, 31, 15)  (  1,  1, 15)  (  1,  1, 15)  (  1,  2, 13)  (  1, 27, 15)
  0  0.3848E-02  0  0.1929E-02  0  0.1560E-02  0  0.8236E-03  0  0.3212E-03
   (  1, 27, 15)  (  1, 26, 15)  (  1, 26, 15)  (  1, 26, 15)  (  1, 26, 15)
  1 -0.2117      0  0.1203      0  0.9503E-01  0  0.6739E-01  0  0.3550E-01
   (  1, 29,  6)  (  1,  9,  4)  (  1, 31, 15)  (  1, 31, 15)  (  1, 31, 15)
  0  0.2203E-01  0  0.9622E-02  0  0.3877E-02  0  0.1902E-02  0  0.9558E-03
   (  1,  6, 15)  (  1,  6, 15)  (  1, 30, 15)  (  1, 27, 15)  (  1, 27, 15)
  0  0.5550E-03  1 -0.7126E-01  0  0.3687E-01  0  0.2842E-01  0  0.2058E-01
   (  1, 27, 15)  (  1, 29,  6)  (  1, 25, 15)  (  1, 31, 15)  (  1, 31, 15)
  0  0.9426E-02  0  0.4967E-02  0  0.2726E-02  0  0.1297E-02  0  0.7240E-03
   (  1,  6, 15)  (  1,  6, 15)  (  1, 31, 15)  (  1,  6, 15)  (  1, 30, 15)
  0  0.3728E-03  1 -0.2207E-01  0  0.1171E-01  0  0.8542E-02  0  0.6305E-02
   (  1, 28, 15)  (  1, 26, 10)  (  1, 25, 15)  (  1, 31, 15)  (  1, 31, 15)
  0  0.3023E-02  0  0.1861E-02  0  0.9452E-03  0  0.4439E-03  1 -0.6576E-02
   (  1,  6, 15)  (  1,  6, 15)  (  1,  6, 15)  (  1,  6, 15)  (  1, 26, 10)
  0  0.3679E-02  0  0.2731E-02  0  0.2033E-02  0  0.9712E-03  0  0.5648E-03
   (  1, 25, 15)  (  1, 31, 15)  (  1, 31, 15)  (  1, 34, 15)  (  1,  6, 15)
  1 -0.1833E-02  0  0.1237E-02  0  0.9652E-03  0  0.6402E-03  0  0.3321E-03
   (  1, 26, 10)  (  1, 25, 15)  (  1, 31, 15)  (  1, 31, 15)  (  1, 34, 15)
  1  0.6330E-03  0  0.5197E-03  1  0.4984E-03
   (  1, 33, 15)  (  1, 31, 15)  (  1, 31, 15)



 OUTPUT CONTROL FOR STRESS PERIOD    3   TIME STEP    1
    SAVE HEAD FOR ALL LAYERS
    SAVE BUDGET
 UBDSV2 SAVING "   CONSTANT HEAD" ON UNIT  53 AT TIME STEP     1, STRESS PERIOD   3
 UBDSV1 SAVING "FLOW RIGHT FACE " ON UNIT  53 AT TIME STEP     1, STRESS PERIOD   3
 UBDSV1 SAVING "FLOW FRONT FACE " ON UNIT  53 AT TIME STEP     1, STRESS PERIOD   3

 HEAD WILL BE SAVED ON UNIT   51 AT END OF TIME STEP    1, STRESS PERIOD    3
1
  VOLUMETRIC BUDGET FOR ENTIRE MODEL AT END OF TIME STEP    1, STRESS PERIOD   3
  ------------------------------------------------------------------------------

     CUMULATIVE VOLUMES      L**3       RATES FOR THIS TIME STEP      L**3/T
     ------------------                 ------------------------

           IN:                                      IN:
           ---                                      ---
             STORAGE =     2426150.2500               STORAGE =           0.0000
       CONSTANT HEAD =           4.1371         CONSTANT HEAD =           4.1371
               WELLS =     1096200.0000                 WELLS =         600.0000
       RIVER LEAKAGE =      518142.4062         RIVER LEAKAGE =         314.2294
            RECHARGE =     6054378.0000              RECHARGE =        3312.1819

            TOTAL IN =    10094875.0000              TOTAL IN =        4230.5483

          OUT:                                     OUT:
          ----                                     ----
             STORAGE =           0.0000               STORAGE =           0.0000
       CONSTANT HEAD =      569660.0625         CONSTANT HEAD =         178.5879
               WELLS =           0.0000                 WELLS =           0.0000
       RIVER LEAKAGE =     9525305.0000         RIVER LEAKAGE =        4051.9844
            RECHARGE =           0.0000              RECHARGE =           0.0000

           TOTAL OUT =    10094965.0000             TOTAL OUT =        4230.5723

            IN - OUT =         -90.0000              IN - OUT =      -2.3926E-02

 PERCENT DISCREPANCY =          -0.00     PERCENT DISCREPANCY =          -0.00






         TIME SUMMARY AT END OF TIME STEP    1 IN STRESS PERIOD    3
                    SECONDS     MINUTES      HOURS       DAYS        YEARS
                    -----------------------------------------------------------
   TIME STEP LENGTH  86400.      1440.0      24.000      1.0000     2.73785E-03
 STRESS PERIOD TIME  86400.      1440.0      24.000      1.0000     2.73785E-03
         TOTAL TIME 1.57853E+08 2.63088E+06  43848.      1827.0      5.0021    
1

 Run end date and time (yyyy/mm/dd hh:mm:ss): 2018/01/13 17:00:12
 Elapsed run time:  0.065 Seconds

