                                  MODFLOW-NWT-SWR1 
      U.S. GEOLOGICAL SURVEY MODULAR FINITE-DIFFERENCE GROUNDWATER-FLOW MODEL
                            VERSION 1.1.3, 8/01/2017
                    BASED ON MODFLOW-2005 VERSION 1.11.00 08/08/2013

 LIST FILE: freyberg.list
                         UNIT    2

 OPENING freyberg.dis
 FILE TYPE:DIS   UNIT   11   STATUS:OLD    
 FORMAT:FORMATTED              ACCESS:SEQUENTIAL          

 OPENING freyberg.upw
 FILE TYPE:LPF   UNIT   31   STATUS:OLD    
 FORMAT:FORMATTED              ACCESS:SEQUENTIAL          

 OPENING freyberg.bas
 FILE TYPE:BAS6   UNIT   13   STATUS:OLD    
 FORMAT:FORMATTED              ACCESS:SEQUENTIAL          

 OPENING freyberg.rch
 FILE TYPE:RCH   UNIT   19   STATUS:OLD    
 FORMAT:FORMATTED              ACCESS:SEQUENTIAL          

 OPENING freyberg.wel
 FILE TYPE:WEL   UNIT   20   STATUS:OLD    
 FORMAT:FORMATTED              ACCESS:SEQUENTIAL          

 OPENING freyberg.riv
 FILE TYPE:RIV   UNIT   18   STATUS:OLD    
 FORMAT:FORMATTED              ACCESS:SEQUENTIAL          

 OPENING freyberg.oc
 FILE TYPE:OC   UNIT   14   STATUS:OLD    
 FORMAT:FORMATTED              ACCESS:SEQUENTIAL          

 OPENING freyberg.hds
 FILE TYPE:DATA   UNIT   51   STATUS:REPLACE
 FORMAT:FORMATTED              ACCESS:SEQUENTIAL          

 OPENING freyberg.ddn
 FILE TYPE:DATA(BINARY)   UNIT   52   STATUS:REPLACE
 FORMAT:BINARY                 ACCESS:SEQUENTIAL          

 OPENING freyberg.cbc
 FILE TYPE:DATA(BINARY)   UNIT   53   STATUS:REPLACE
 FORMAT:BINARY                 ACCESS:SEQUENTIAL          

 OPENING freyberg.pcg
 FILE TYPE:PCG   UNIT   32   STATUS:OLD    
 FORMAT:FORMATTED              ACCESS:SEQUENTIAL          

 BAS -- BASIC PACKAGE, VERSION 1.1.3, 8/01/2017 INPUT READ FROM UNIT   13
 
 MODFLOW was compiled using mixed precision
 Precision of REAL variables:           6
 Precision of DOUBLE PRECISION variables:          15

 DISCRETIZATION INPUT DATA READ FROM UNIT   11
 # Discretization file for MODFLOW, generated by Flopy.
    1 LAYERS        40 ROWS        20 COLUMNS
    3 STRESS PERIOD(S) IN SIMULATION
 MODEL TIME UNIT IS DAYS
 MODEL LENGTH UNIT IS METERS
  Confining bed flag for each layer:
   0



                               DELR
 READING ON UNIT   11 WITH FORMAT: (20G15.6)           



                               DELC
 READING ON UNIT   11 WITH FORMAT: (40G15.6)           

 TOP ELEVATION OF LAYER 1 =   35.0000    

 OPENING FILE ON UNIT   99:
 botm.ref                                                                                                                                                                                                



             MODEL LAYER BOTTOM EL. FOR LAYER   1
 READING ON UNIT   99 WITH FORMAT: (10E12.4)           


 STRESS PERIOD     LENGTH       TIME STEPS     MULTIPLIER FOR DELT    SS FLAG
 ----------------------------------------------------------------------------
        1         1.000000          1                    1.000         SS
        2         1825.000          1                    1.000         TR
        3         1.000000          1                    1.000         SS

 COMBINED STEADY-STATE AND TRANSIENT SIMULATION



 
 # Basic package file for MODFLOW, generated by Flopy.                           
 THE FREE FORMAT OPTION HAS BEEN SELECTED

 OPENING FILE ON UNIT   99:
 ibound.ref                                                                                                                                                                                              



                     BOUNDARY ARRAY FOR LAYER   1
 READING ON UNIT   99 WITH FORMAT: (25I3)              

 AQUIFER HEAD WILL BE SET TO  -999.99     AT ALL NO-FLOW NODES (IBOUND=0).

 OPENING FILE ON UNIT   99:
 strt.ref                                                                                                                                                                                                



                       INITIAL HEAD FOR LAYER   1
 READING ON UNIT   99 WITH FORMAT: (10E12.4)           
 # Output control package file for MODFLOW, generated by Flopy.

 OUTPUT CONTROL IS SPECIFIED ONLY AT TIME STEPS FOR WHICH OUTPUT IS DESIRED
 HEADS WILL BE SAVED WITH FORMAT: (20E15.6)           
 COMPACT CELL-BY-CELL BUDGET FILES WILL BE WRITTEN
 AUXILIARY DATA WILL BE SAVED IN CELL-BY-CELL BUDGET FILES
 HEAD PRINT FORMAT CODE IS   0    DRAWDOWN PRINT FORMAT CODE IS   0
 HEADS WILL BE SAVED ON UNIT   51    DRAWDOWNS WILL BE SAVED ON UNIT   52

 LPF -- LAYER-PROPERTY FLOW PACKAGE, VERSION 7, 5/2/2005
         INPUT READ FROM UNIT   31
 # UPW for MODFLOW-NWT, generated by Flopy.
 CELL-BY-CELL FLOWS WILL BE SAVED ON UNIT   53
 HEAD AT CELLS THAT CONVERT TO DRY= -1.00000E+30
 No named parameters

   LAYER FLAGS:
 LAYER       LAYTYP        LAYAVG         CHANI        LAYVKA        LAYWET
 ---------------------------------------------------------------------------
    1             1             0     1.000E+00             0             0

   INTERPRETATION OF LAYER FLAGS:
                        INTERBLOCK     HORIZONTAL    DATA IN
         LAYER TYPE   TRANSMISSIVITY   ANISOTROPY   ARRAY VKA   WETTABILITY
 LAYER      (LAYTYP)      (LAYAVG)       (CHANI)      (LAYVKA)      (LAYWET)
 ---------------------------------------------------------------------------
    1   CONVERTIBLE      HARMONIC     1.000E+00    VERTICAL K  NON-WETTABLE

 WETTING CAPABILITY IS NOT ACTIVE IN ANY LAYER

 OPENING FILE ON UNIT   99:
 hk_Layer_1.ref                                                                                                                                                                                          



              HYD. COND. ALONG ROWS FOR LAYER   1
 READING ON UNIT   99 WITH FORMAT: (20G15.6)           

      VERTICAL HYD. COND. =   1.00000     FOR LAYER   1

 OPENING FILE ON UNIT   99:
 ss_Layer_1.ref                                                                                                                                                                                          



                   SPECIFIC STORAGE FOR LAYER   1
 READING ON UNIT   99 WITH FORMAT: (20G15.6)           

           SPECIFIC YIELD =  9.734087E-02 FOR LAYER   1

 WEL -- WELL PACKAGE FOR NWT VERSION 1.1.3,  8/01/2017 INPUT READ FROM UNIT   20
 # Well file for MODFLOW, generated by Flopy.
 No named parameters
 MAXIMUM OF      6 ACTIVE WELLS AT ONE TIME
 No named parameters


     0 Well parameters

 RIV -- RIVER PACKAGE, VERSION 7, 5/2/2005 INPUT READ FROM UNIT   18
 # RIV for MODFLOW, generated by Flopy.
 No named parameters
 MAXIMUM OF     40 ACTIVE RIVER REACHES AT ONE TIME


     0 River parameters

 RCH -- RECHARGE PACKAGE, VERSION 7, 5/2/2005 INPUT READ FROM UNIT   19
 # RCH for MODFLOW, generated by Flopy.
 No named parameters
 OPTION 3 -- RECHARGE TO HIGHEST ACTIVE NODE IN EACH VERTICAL COLUMN


     0 Recharge parameters

 PCG -- CONJUGATE-GRADIENT SOLUTION PACKAGE, VERSION 7, 5/2/2005
 MAXIMUM OF    100 CALLS OF SOLUTION ROUTINE
 MAXIMUM OF     25 INTERNAL ITERATIONS PER CALL TO SOLUTION ROUTINE
 MATRIX PRECONDITIONING TYPE :    1
 IHCOFADD option -- When an active cell is surrounded by dry cells, convert
 the cell to dry only if storage and head-dependent boundary flow are 0.



                                    SOLUTION BY THE CONJUGATE-GRADIENT METHOD
                                   -------------------------------------------
                    MAXIMUM NUMBER OF CALLS TO PCG ROUTINE =      100
                        MAXIMUM ITERATIONS PER CALL TO PCG =       25
                               MATRIX PRECONDITIONING TYPE =        1
        RELAXATION FACTOR (ONLY USED WITH PRECOND. TYPE 1) =    0.10000E+01
 PARAMETER OF POLYNOMIAL PRECOND. = 2 (2) OR IS CALCULATED :        2
                         HEAD CHANGE CRITERION FOR CLOSURE =    0.10000E-04
                     RESIDUAL CHANGE CRITERION FOR CLOSURE =    0.10000E+00
            PCG HEAD AND RESIDUAL CHANGE PRINTOUT INTERVAL =        5
     PRINTING FROM SOLVER IS LIMITED(1) OR SUPPRESSED (>1) =        0
                            STEADY-STATE DAMPING PARAMETER =    0.70000E+00
                               TRANSIENT DAMPING PARAMETER =    0.70000E+00
1
                            STRESS PERIOD NO.    1, LENGTH =   1.000000    
                            -----------------------------------------------

                              NUMBER OF TIME STEPS =     1

                               MULTIPLIER FOR DELT =     1.000

                            INITIAL TIME STEP SIZE =   1.000000    

 WELL NO.  LAYER   ROW   COL   STRESS RATE         
 --------------------------------------------------
      1      1      9     16       100.0    
      2      1     11     13       100.0    
      3      1     20     14       100.0    
      4      1     26     10       100.0    
      5      1     29      6       100.0    
      6      1     34     12       100.0    

      6 WELLS

 REACH NO.  LAYER   ROW   COL     STAGE      CONDUCTANCE     BOTTOM EL.         
 -------------------------------------------------------------------------------
      1      1      1     15       20.10          0.1256E+05       20.00    
      2      1      2     15       19.87           1965.           19.75    
      3      1      3     15       19.65           3187.           19.50    
      4      1      4     15       19.42           3740.           19.25    
      5      1      5     15       19.19           8528.           19.00    
      6      1      6     15       18.97           6010.           18.75    
      7      1      7     15       18.74           738.9           18.50    
      8      1      8     15       18.51           1963.           18.25    
      9      1      9     15       18.28           3599.           18.00    
     10      1     10     15       19.06           8421.           17.75    
     11      1     11     15       17.83           5719.           17.50    
     12      1     12     15       17.60           7688.           17.25    
     13      1     13     15       17.38          0.1542E+05       17.00    
     14      1     14     15       17.15           2043.           16.75    
     15      1     15     15       16.92           3080.           16.50    
     16      1     16     15       16.70          0.4500E+05       16.25    
     17      1     17     15       16.47           4061.           16.00    
     18      1     18     15       16.24          0.2083E+05       15.75    
     19      1     19     15       16.02           1145.           15.50    
     20      1     20     15       15.79           2584.           15.25    
     21      1     21     15       15.56           3934.           15.00    
     22      1     22     15       15.33           2066.           14.75    
     23      1     23     15       15.11           4458.           14.50    
     24      1     24     15       14.88           2750.           14.25    
     25      1     25     15       14.65           8215.           14.00    
     26      1     26     15       14.43           7070.           13.75    
     27      1     27     15       14.20           3536.           13.50    
     28      1     28     15       13.97           2296.           13.25    
     29      1     29     15       13.75           5455.           13.00    
     30      1     30     15       13.52           3768.           12.75    
     31      1     31     15       13.29           2165.           12.50    
     32      1     32     15       13.07          0.1409E+05       12.25    
     33      1     33     15       12.84           6967.           12.00    
     34      1     34     15       12.61           2732.           11.75    
     35      1     35     15       12.38           1539.           11.50    
     36      1     36     15       12.16           4193.           11.25    
     37      1     37     15       11.93          0.1074E+05       11.00    
     38      1     38     15       11.70          0.1266E+05       10.75    
     39      1     39     15       11.48           1781.           10.50    
     40      1     40     15       11.25           6209.           10.25    

     40 RIVER REACHES

 OPENING FILE ON UNIT   99:
 rech_0.ref                                                                                                                                                                                              



                           RECHARGE
 READING ON UNIT   99 WITH FORMAT: (20G15.6)           
 
 SOLVING FOR HEAD 


    15 CALLS TO PCG ROUTINE FOR TIME STEP     1 IN STRESS PERIOD    1
   185 TOTAL ITERATIONS

 MAXIMUM HEAD CHANGE FOR EACH ITERATION (1 INDICATES THE FIRST INNER ITERATION):

    HEAD CHANGE    HEAD CHANGE    HEAD CHANGE    HEAD CHANGE    HEAD CHANGE 
   LAYER,ROW,COL  LAYER,ROW,COL  LAYER,ROW,COL  LAYER,ROW,COL  LAYER,ROW,COL
 ---------------------------------------------------------------------------
  1  -54.58      0  -34.16      0   21.96      0   6.370      0  -3.564    
   (  1, 39, 11)  (  1,  9,  4)  (  1,  9,  4)  (  1,  8,  5)  (  1, 32,  1)
  0  -1.357      0 -0.5690      0 -0.3419      0  0.1328      0 -0.1003    
   (  1, 28,  5)  (  1, 24,  8)  (  1, 37,  5)  (  1,  7,  3)  (  1,  8,  4)
  0  0.5619E-01  0  0.1513E-01  0 -0.1180E-01  0  0.1215E-01  0  0.3263E-02
   (  1, 10,  1)  (  1, 32,  1)  (  1,  9,  4)  (  1,  9,  3)  (  1, 35,  4)
  0  0.1111E-02  0 -0.3573E-03  0 -0.1599E-03  0 -0.4957E-04  0 -0.3756E-04
   (  1, 27,  3)  (  1,  7,  3)  (  1, 14,  1)  (  1, 15, 11)  (  1,  4,  5)
  0  0.2160E-04  0 -0.1433E-04  0  0.6762E-05  1  -14.47      0  -13.31    
   (  1,  9,  3)  (  1,  9,  4)  (  1, 13,  2)  (  1, 39, 11)  (  1,  9,  4)
  0  -6.096      0   2.315      0  -1.346      0 -0.4893      0 -0.2213    
   (  1,  8,  5)  (  1,  8,  5)  (  1, 32,  1)  (  1, 28,  5)  (  1, 14,  1)
  0 -0.1130      0  0.4382E-01  0 -0.2349E-01  0  0.1685E-01  0 -0.9090E-02
   (  1,  7,  3)  (  1,  5,  1)  (  1, 31,  6)  (  1, 10,  1)  (  1,  9,  4)
  0  0.4528E-02  0  0.2137E-02  0  0.8108E-03  0  0.3364E-03  0 -0.1132E-03
   (  1,  9,  4)  (  1, 29,  3)  (  1, 35,  4)  (  1, 27,  3)  (  1,  8,  3)
  0 -0.4730E-04  0  0.1649E-04  0 -0.1930E-04  0 -0.1074E-04  0  0.3385E-05
   (  1, 14,  1)  (  1, 15,  3)  (  1,  9,  4)  (  1,  8,  5)  (  1,  4,  2)
  1   10.16      0  -7.475      0  -3.761      0 -0.8539      0 -0.6448    
   (  1,  9,  4)  (  1,  9,  4)  (  1,  8,  5)  (  1,  3,  6)  (  1, 32,  1)
  0 -0.1958      0 -0.1039      0 -0.5248E-01  0 -0.1531E-01  0 -0.8633E-02
   (  1, 28,  4)  (  1, 20,  4)  (  1,  8,  4)  (  1, 27,  7)  (  1, 33,  6)
  0 -0.3094E-02  0  0.2574E-02  0 -0.2002E-02  0  0.7391E-03  0 -0.2192E-03
   (  1, 29,  6)  (  1,  9,  4)  (  1,  9,  1)  (  1, 30,  2)  (  1,  4,  2)
  0  0.1242E-03  0  0.4205E-04  0 -0.1683E-04  0  0.7628E-05  1   2.045    
   (  1, 32,  1)  (  1, 19,  4)  (  1, 14,  1)  (  1, 29,  2)  (  1,  8,  5)
  0  -1.624      0 -0.7616      0 -0.3472      0 -0.2455      0 -0.6793E-01
   (  1,  8,  5)  (  1,  9,  4)  (  1, 30,  1)  (  1, 32,  1)  (  1, 29,  5)
  0 -0.3137E-01  0 -0.1422E-01  0  0.5129E-02  0 -0.3685E-02  0  0.1479E-02
   (  1,  8,  4)  (  1, 32,  5)  (  1,  6,  1)  (  1, 32,  6)  (  1, 10,  1)
  0 -0.9678E-03  0  0.5403E-03  0  0.2944E-03  0 -0.1080E-03  0  0.4666E-04
   (  1, 31,  3)  (  1,  9,  4)  (  1,  6,  5)  (  1,  3,  5)  (  1,  4,  6)
  0  0.1604E-04  0  0.8920E-05  1  0.5179      0  0.5299      0 -0.2067    
   (  1, 39, 14)  (  1, 23,  9)  (  1,  8,  6)  (  1,  9,  4)  (  1, 26,  7)
  0 -0.1497      0 -0.6415E-01  0 -0.2413E-01  0 -0.1540E-01  0 -0.6967E-02
   (  1, 32,  1)  (  1, 32,  1)  (  1, 20,  4)  (  1, 30,  5)  (  1,  8,  4)
  0  0.3689E-02  0 -0.1649E-02  0  0.6881E-03  0 -0.3021E-03  0 -0.2011E-03
   (  1,  7,  3)  (  1, 14,  4)  (  1, 10,  1)  (  1, 31,  3)  (  1,  9,  4)
  0  0.1533E-03  0 -0.4430E-04  0  0.1631E-04  0 -0.6601E-05  1 -0.1974    
   (  1,  9,  4)  (  1,  4,  2)  (  1,  4,  6)  (  1,  9,  1)  (  1,  9,  4)
  0  0.2252      0  0.8169E-01  0 -0.6644E-01  0 -0.2825E-01  0 -0.7866E-02
   (  1,  9,  4)  (  1,  8,  5)  (  1,  8,  4)  (  1, 32,  1)  (  1, 20,  4)
  0 -0.5432E-02  0  0.1891E-02  0 -0.8225E-03  0  0.3316E-03  0  0.2057E-03
   (  1, 30,  5)  (  1, 11,  1)  (  1, 28,  6)  (  1,  7,  3)  (  1, 11,  1)
  0 -0.1038E-03  0  0.8943E-04  0  0.3744E-04  0 -0.1537E-04  0  0.5891E-05
   (  1,  9,  4)  (  1,  9,  4)  (  1,  5,  5)  (  1,  4,  2)  (  1,  3,  4)
  1 -0.6050E-01  0  0.7000E-01  0  0.3546E-01  0 -0.2414E-01  0 -0.1040E-01
   (  1,  9,  4)  (  1,  9,  4)  (  1,  8,  5)  (  1,  8,  5)  (  1, 32,  1)
  0 -0.2520E-02  0 -0.1569E-02  0 -0.5510E-03  0 -0.2605E-03  0 -0.1063E-03
   (  1, 20,  4)  (  1, 30,  5)  (  1, 37,  5)  (  1, 28,  6)  (  1, 35,  6)
  0  0.7165E-04  0 -0.2209E-04  0 -0.2086E-04  0  0.1412E-04  0 -0.4509E-05
   (  1, 12,  1)  (  1, 33,  7)  (  1,  9,  4)  (  1,  9,  4)  (  1,  4,  2)
  1  0.1555E-01  0  0.1513E-01  0 -0.7430E-02  0 -0.9414E-02  0 -0.3350E-02
   (  1, 22,  9)  (  1,  8,  5)  (  1,  8,  5)  (  1,  9,  4)  (  1, 32,  1)
  0 -0.8044E-03  0 -0.3012E-03  0 -0.1321E-03  0 -0.6199E-04  0 -0.3341E-04
   (  1, 21,  4)  (  1, 31,  5)  (  1, 37,  5)  (  1, 28,  5)  (  1, 34,  3)
  0  0.2148E-04  0  0.6952E-05  1  0.4752E-02  0  0.4131E-02  0  0.4094E-02
   (  1, 12,  1)  (  1, 32,  1)  (  1, 22, 10)  (  1,  8,  5)  (  1,  9,  4)
  0 -0.2073E-02  0 -0.9555E-03  0 -0.2432E-03  0 -0.1365E-03  0  0.4497E-04
   (  1,  9,  4)  (  1, 32,  1)  (  1, 30,  7)  (  1,  8,  5)  (  1, 14,  1)
  0  0.1911E-04  0 -0.1086E-04  0  0.4224E-05  1  0.1492E-02  0 -0.1953E-02
   (  1, 29,  2)  (  1, 35,  6)  (  1, 12,  3)  (  1,  9,  3)  (  1,  9,  4)
  0 -0.9620E-03  0 -0.4127E-03  0 -0.2491E-03  0  0.6514E-04  0 -0.4811E-04
   (  1, 22,  9)  (  1, 27,  3)  (  1, 32,  1)  (  1,  9,  4)  (  1,  8,  5)
  0  0.1208E-04  0 -0.5474E-05  1  0.6855E-03  0 -0.7146E-03  0 -0.2883E-03
   (  1,  8,  5)  (  1, 12, 10)  (  1,  9,  4)  (  1,  9,  4)  (  1, 22, 10)
  0 -0.1141E-03  0 -0.6943E-04  0 -0.2056E-04  0  0.7211E-05  1  0.2206E-03
   (  1, 27,  3)  (  1, 32,  1)  (  1, 35,  4)  (  1,  9,  4)  (  1,  9,  4)
  0 -0.2167E-03  0 -0.8279E-04  0  0.4713E-04  0 -0.1970E-04  0 -0.6129E-05
   (  1,  9,  4)  (  1,  8,  5)  (  1,  8,  5)  (  1,  9,  4)  (  1, 30,  7)
  1  0.8262E-04  0 -0.7099E-04  0 -0.4368E-04  0  0.1891E-04  0 -0.5015E-05
   (  1,  9,  4)  (  1,  9,  4)  (  1,  8,  5)  (  1,  8,  5)  (  1,  9,  4)
  1  0.2245E-04  0 -0.2394E-04  0 -0.1332E-04  0  0.6066E-05  1  0.6302E-05
   (  1,  9,  4)  (  1,  9,  4)  (  1,  8,  5)  (  1,  8,  5)  (  1, 17, 11)

 MAXIMUM RESIDUAL FOR EACH ITERATION (1 INDICATES THE FIRST INNER ITERATION):

    RESIDUAL       RESIDUAL       RESIDUAL       RESIDUAL       RESIDUAL    
   LAYER,ROW,COL  LAYER,ROW,COL  LAYER,ROW,COL  LAYER,ROW,COL  LAYER,ROW,COL
 ---------------------------------------------------------------------------
  1  0.1397E+05  0   5828.      0   2907.      0   1049.      0  -559.8    
   (  1, 16, 15)  (  1, 16, 15)  (  1, 16, 15)  (  1, 16, 15)  (  1, 39, 15)
  0  -407.1      0  -281.8      0  -155.7      0  -87.14      0  -43.44    
   (  1, 39, 15)  (  1, 39, 15)  (  1, 39, 15)  (  1, 39, 15)  (  1, 39, 15)
  0  -18.58      0  -7.362      0  -5.007      0   2.393      0  0.9243    
   (  1, 39, 15)  (  1, 39, 15)  (  1, 39, 15)  (  1, 16, 15)  (  1, 16, 15)
  0  0.3518      0  0.1430      0  0.6203E-01  0 -0.3205E-01  0 -0.1634E-01
   (  1, 16, 15)  (  1, 16, 15)  (  1, 16, 15)  (  1, 38, 15)  (  1, 38, 15)
  0 -0.7912E-02  0 -0.6221E-02  0 -0.2670E-02  1   2935.      0   1647.    
   (  1, 38, 15)  (  1, 38, 15)  (  1, 38, 15)  (  1, 16, 15)  (  1, 16, 15)
  0   735.6      0   245.6      0  -128.2      0  -93.29      0  -64.07    
   (  1, 16, 15)  (  1, 16, 15)  (  1, 39, 15)  (  1, 39, 15)  (  1, 39, 15)
  0  -38.02      0  -24.20      0  -12.48      0  -5.669      0  -4.276    
   (  1, 39, 15)  (  1, 39, 15)  (  1, 39, 15)  (  1, 39, 15)  (  1, 39, 15)
  0  -1.933      0 -0.7327      0 -0.2612      0  0.8630E-01  0  0.3376E-01
   (  1, 39, 15)  (  1, 39, 15)  (  1, 39, 15)  (  1, 16, 15)  (  1, 16, 15)
  0  0.1385E-01  0 -0.6628E-02  0 -0.5102E-02  0 -0.2872E-02  0 -0.1290E-02
   (  1, 16, 15)  (  1, 38, 15)  (  1, 38, 15)  (  1, 38, 15)  (  1, 38, 15)
  1   1455.      0   612.9      0   256.3      0   92.40      0   35.40    
   (  1, 16, 15)  (  1, 16, 15)  (  1, 16, 15)  (  1, 16, 15)  (  1, 16, 15)
  0  -22.42      0  -14.78      0  -9.071      0  -5.839      0  -3.531    
   (  1, 39, 15)  (  1, 39, 15)  (  1, 39, 15)  (  1, 39, 15)  (  1, 39, 15)
  0  -1.651      0  -1.338      0 -0.6429      0 -0.2865      0 -0.1196    
   (  1, 39, 15)  (  1, 39, 15)  (  1, 39, 15)  (  1, 39, 15)  (  1, 39, 15)
  0 -0.3748E-01  0 -0.1158E-01  0  0.4693E-02  0  0.1914E-02  1   454.7    
   (  1, 39, 15)  (  1, 39, 15)  (  1, 16, 15)  (  1, 16, 15)  (  1, 16, 15)
  0   158.2      0   102.0      0   36.77      0   13.65      0   6.856    
   (  1, 16, 15)  (  1, 16, 15)  (  1, 16, 15)  (  1, 16, 15)  (  1, 16, 15)
  0  -4.046      0  -2.649      0  -1.806      0  -1.126      0 -0.5536    
   (  1, 39, 15)  (  1, 39, 15)  (  1, 39, 15)  (  1, 39, 15)  (  1, 39, 15)
  0 -0.2710      0 -0.2050      0 -0.1168      0 -0.5484E-01  0 -0.2143E-01
   (  1, 39, 15)  (  1, 39, 15)  (  1, 39, 15)  (  1, 39, 15)  (  1, 39, 15)
  0 -0.8245E-02  0 -0.2912E-02  1   226.1      0   116.9      0   40.97    
   (  1, 39, 15)  (  1, 39, 15)  (  1, 16, 15)  (  1, 16, 15)  (  1, 16, 15)
  0   12.82      0   5.159      0   2.755      0   1.451      0 -0.7711    
   (  1, 16, 15)  (  1, 16, 15)  (  1, 16, 15)  (  1, 16, 15)  (  1, 39, 15)
  0 -0.5252      0 -0.3466      0 -0.1870      0 -0.1021      0 -0.8353E-01
   (  1, 39, 15)  (  1, 39, 15)  (  1, 39, 15)  (  1, 39, 15)  (  1, 39, 15)
  0 -0.3991E-01  0 -0.1960E-01  0 -0.8617E-02  0 -0.3480E-02  1   96.34    
   (  1, 39, 15)  (  1, 39, 15)  (  1, 39, 15)  (  1, 39, 15)  (  1, 16, 15)
  0   50.12      0   17.61      0   5.097      0   1.917      0   1.044    
   (  1, 16, 15)  (  1, 16, 15)  (  1, 16, 15)  (  1, 16, 15)  (  1, 16, 15)
  0  0.5124      0  0.2553      0 -0.1648      0 -0.1048      0 -0.5976E-01
   (  1, 16, 15)  (  1, 16, 15)  (  1, 39, 15)  (  1, 39, 15)  (  1, 39, 15)
  0 -0.3719E-01  0 -0.2858E-01  0 -0.1253E-01  0 -0.6057E-02  0 -0.2712E-02
   (  1, 39, 15)  (  1, 39, 15)  (  1, 39, 15)  (  1, 39, 15)  (  1, 39, 15)
  1   30.95      0   17.89      0   6.984      0   1.877      0  0.6316    
   (  1, 16, 15)  (  1, 16, 15)  (  1, 16, 15)  (  1, 16, 15)  (  1, 16, 15)
  0  0.3346      0  0.1720      0  0.8966E-01  0 -0.5223E-01  0 -0.3121E-01
   (  1, 16, 15)  (  1, 16, 15)  (  1, 16, 15)  (  1, 39, 15)  (  1, 39, 15)
  0 -0.1791E-01  0 -0.1061E-01  0 -0.8715E-02  0 -0.3823E-02  0 -0.1750E-02
   (  1, 39, 15)  (  1, 39, 15)  (  1, 39, 15)  (  1, 39, 15)  (  1, 39, 15)
  1   9.853      0   3.549      0   1.968      0  0.6382      0  0.1987    
   (  1, 16, 15)  (  1, 16, 15)  (  1, 16, 15)  (  1, 16, 15)  (  1, 16, 15)
  0  0.8870E-01  0  0.5134E-01  0  0.2513E-01  0  0.1571E-01  0 -0.9261E-02
   (  1, 16, 15)  (  1, 16, 15)  (  1, 16, 15)  (  1, 16, 15)  (  1, 39, 15)
  0 -0.5105E-02  0 -0.2875E-02  1   3.685      0   2.338      0  0.7529    
   (  1, 39, 15)  (  1, 39, 15)  (  1, 16, 15)  (  1, 16, 15)  (  1, 16, 15)
  0  0.2076      0  0.6475E-01  0  0.2891E-01  0  0.1739E-01  0  0.8132E-02
   (  1, 16, 15)  (  1, 16, 15)  (  1, 16, 15)  (  1, 16, 15)  (  1, 16, 15)
  0  0.4820E-02  0 -0.2767E-02  0 -0.1472E-02  1   1.425      0  0.8209    
   (  1, 16, 15)  (  1, 39, 15)  (  1, 39, 15)  (  1, 16, 15)  (  1, 16, 15)
  0  0.2285      0  0.6664E-01  0  0.2131E-01  0  0.9180E-02  0  0.5428E-02
   (  1, 16, 15)  (  1, 16, 15)  (  1, 16, 15)  (  1, 16, 15)  (  1, 16, 15)
  0  0.2468E-02  0  0.1118E-02  1  0.5012      0  0.2727      0  0.7547E-01
   (  1, 16, 15)  (  1, 16, 15)  (  1, 16, 15)  (  1, 16, 15)  (  1, 16, 15)
  0  0.2276E-01  0  0.6705E-02  0  0.2785E-02  0  0.1542E-02  1  0.1553    
   (  1, 16, 15)  (  1, 16, 15)  (  1, 16, 15)  (  1, 16, 15)  (  1, 16, 15)
  0  0.8868E-01  0  0.2614E-01  0  0.7257E-02  0  0.1966E-02  0  0.8436E-03
   (  1, 16, 15)  (  1, 16, 15)  (  1, 16, 15)  (  1, 16, 15)  (  1, 16, 15)
  1  0.4804E-01  0  0.2922E-01  0  0.1231E-01  0  0.1913E-02  0  0.5361E-03
   (  1, 16, 15)  (  1, 16, 15)  (  1, 16, 15)  (  1, 16, 15)  (  1, 16, 15)
  1  0.1529E-01  0  0.8797E-02  0  0.4589E-02  0  0.7131E-03  1  0.8950E-02
   (  1, 16, 15)  (  1, 16, 15)  (  1, 16, 15)  (  1, 16, 15)  (  1, 16, 15)



 OUTPUT CONTROL FOR STRESS PERIOD    1   TIME STEP    1
    SAVE HEAD FOR ALL LAYERS
    SAVE BUDGET
 UBDSV2 SAVING "   CONSTANT HEAD" ON UNIT  53 AT TIME STEP     1, STRESS PERIOD   1
 UBDSV1 SAVING "FLOW RIGHT FACE " ON UNIT  53 AT TIME STEP     1, STRESS PERIOD   1
 UBDSV1 SAVING "FLOW FRONT FACE " ON UNIT  53 AT TIME STEP     1, STRESS PERIOD   1

 HEAD WILL BE SAVED ON UNIT   51 AT END OF TIME STEP    1, STRESS PERIOD    1
1
  VOLUMETRIC BUDGET FOR ENTIRE MODEL AT END OF TIME STEP    1, STRESS PERIOD   1
  ------------------------------------------------------------------------------

     CUMULATIVE VOLUMES      L**3       RATES FOR THIS TIME STEP      L**3/T
     ------------------                 ------------------------

           IN:                                      IN:
           ---                                      ---
             STORAGE =           0.0000               STORAGE =           0.0000
       CONSTANT HEAD =           0.0000         CONSTANT HEAD =           0.0000
               WELLS =         600.0000                 WELLS =         600.0000
       RIVER LEAKAGE =         226.8590         RIVER LEAKAGE =         226.8590
            RECHARGE =        6314.5283              RECHARGE =        6314.5283

            TOTAL IN =        7141.3872              TOTAL IN =        7141.3872

          OUT:                                     OUT:
          ----                                     ----
             STORAGE =           0.0000               STORAGE =           0.0000
       CONSTANT HEAD =         445.4887         CONSTANT HEAD =         445.4887
               WELLS =           0.0000                 WELLS =           0.0000
       RIVER LEAKAGE =        6696.0610         RIVER LEAKAGE =        6696.0610
            RECHARGE =           0.0000              RECHARGE =           0.0000

           TOTAL OUT =        7141.5498             TOTAL OUT =        7141.5498

            IN - OUT =          -0.1626              IN - OUT =          -0.1626

 PERCENT DISCREPANCY =          -0.00     PERCENT DISCREPANCY =          -0.00






         TIME SUMMARY AT END OF TIME STEP    1 IN STRESS PERIOD    1
                    SECONDS     MINUTES      HOURS       DAYS        YEARS
                    -----------------------------------------------------------
   TIME STEP LENGTH  86400.      1440.0      24.000      1.0000     2.73785E-03
 STRESS PERIOD TIME  86400.      1440.0      24.000      1.0000     2.73785E-03
         TOTAL TIME  86400.      1440.0      24.000      1.0000     2.73785E-03
1
1
                            STRESS PERIOD NO.    2, LENGTH =   1825.000    
                            -----------------------------------------------

                              NUMBER OF TIME STEPS =     1

                               MULTIPLIER FOR DELT =     1.000

                            INITIAL TIME STEP SIZE =   1825.000    

 WELL NO.  LAYER   ROW   COL   STRESS RATE         
 --------------------------------------------------
      1      1      9     16       100.0    
      2      1     11     13       100.0    
      3      1     20     14       100.0    
      4      1     26     10       100.0    
      5      1     29      6       100.0    
      6      1     34     12       100.0    

      6 WELLS

 REUSING NON-PARAMETER RIVER REACHES FROM LAST STRESS PERIOD

     40 RIVER REACHES

 OPENING FILE ON UNIT   99:
 rech_1.ref                                                                                                                                                                                              



                           RECHARGE
 READING ON UNIT   99 WITH FORMAT: (20G15.6)           
 
 SOLVING FOR HEAD 


    10 CALLS TO PCG ROUTINE FOR TIME STEP     1 IN STRESS PERIOD    2
    63 TOTAL ITERATIONS

 MAXIMUM HEAD CHANGE FOR EACH ITERATION (1 INDICATES THE FIRST INNER ITERATION):

    HEAD CHANGE    HEAD CHANGE    HEAD CHANGE    HEAD CHANGE    HEAD CHANGE 
   LAYER,ROW,COL  LAYER,ROW,COL  LAYER,ROW,COL  LAYER,ROW,COL  LAYER,ROW,COL
 ---------------------------------------------------------------------------
  1 -0.7505      0 -0.1283      0 -0.4202E-01  0 -0.1486E-01  0 -0.4371E-02
   (  1,  9,  4)  (  1,  1, 12)  (  1,  2,  5)  (  1,  2,  1)  (  1,  4,  1)
  0  0.1636E-02  0  0.5452E-03  0 -0.2178E-03  0 -0.7167E-04  0  0.2421E-04
   (  1,  9,  4)  (  1,  8,  5)  (  1,  4,  2)  (  1,  8,  1)  (  1, 32,  1)
  0 -0.5981E-05  1 -0.1670      0 -0.3771E-01  0 -0.1630E-01  0 -0.4261E-02
   (  1,  9,  4)  (  1,  3,  7)  (  1,  1, 13)  (  1,  2,  6)  (  1,  8,  5)
  0 -0.2488E-02  0 -0.6411E-03  0  0.1345E-03  0 -0.5160E-04  0  0.1701E-04
   (  1,  9,  4)  (  1,  8,  5)  (  1,  8,  5)  (  1,  4,  2)  (  1, 29,  4)
  0  0.5974E-05  1 -0.4608E-01  0 -0.1267E-01  0 -0.5369E-02  0  0.1865E-02
   (  1, 32,  1)  (  1, 22,  9)  (  1,  8,  5)  (  1,  9,  3)  (  1,  9,  4)
  0 -0.5963E-03  0 -0.2016E-03  0 -0.4792E-04  0  0.1317E-04  0  0.5023E-05
   (  1,  9,  4)  (  1,  8,  5)  (  1,  2,  4)  (  1, 27,  6)  (  1, 29,  4)
  1 -0.1284E-01  0 -0.4125E-02  0 -0.2114E-02  0  0.6207E-03  0  0.1402E-03
   (  1, 22, 10)  (  1,  8,  5)  (  1,  9,  4)  (  1,  9,  4)  (  1,  8,  5)
  0 -0.5612E-04  0 -0.1458E-04  0  0.3904E-05  1 -0.3635E-02  0 -0.1181E-02
   (  1,  8,  5)  (  1,  2,  4)  (  1, 27,  6)  (  1,  4, 10)  (  1,  8,  5)
  0 -0.6669E-03  0  0.1844E-03  0  0.4613E-04  0 -0.1445E-04  0  0.3867E-05
   (  1,  9,  4)  (  1,  9,  4)  (  1,  8,  5)  (  1,  8,  5)  (  1, 11, 10)
  1 -0.9976E-03  0 -0.3084E-03  0 -0.1868E-03  0  0.5295E-04  0  0.1471E-04
   (  1,  4, 10)  (  1,  8,  5)  (  1,  9,  4)  (  1,  9,  4)  (  1,  8,  5)
  0 -0.3610E-05  1 -0.2712E-03  0 -0.7711E-04  0 -0.4918E-04  0  0.1512E-04
   (  1,  8,  5)  (  1, 22, 11)  (  1,  9,  9)  (  1,  9,  4)  (  1,  9,  4)
  0  0.4487E-05  1 -0.7518E-04  0 -0.2130E-04  0 -0.1186E-04  0  0.4042E-05
   (  1,  8,  5)  (  1, 23, 13)  (  1,  9,  9)  (  1,  9,  4)  (  1,  9,  4)
  1 -0.2155E-04  0  0.7511E-05  1  0.6804E-05
   (  1, 23, 13)  (  1,  9,  4)  (  1,  7,  8)

 MAXIMUM RESIDUAL FOR EACH ITERATION (1 INDICATES THE FIRST INNER ITERATION):

    RESIDUAL       RESIDUAL       RESIDUAL       RESIDUAL       RESIDUAL    
   LAYER,ROW,COL  LAYER,ROW,COL  LAYER,ROW,COL  LAYER,ROW,COL  LAYER,ROW,COL
 ---------------------------------------------------------------------------
  1   12.93      0   6.660      0   2.844      0  0.9397      0  0.3187    
   (  1,  8, 15)  (  1,  1, 15)  (  1,  1, 15)  (  1,  1, 15)  (  1,  1, 15)
  0  0.1208      0  0.4677E-01  0  0.1816E-01  0  0.5496E-02  0  0.1966E-02
   (  1,  1, 15)  (  1,  1, 15)  (  1,  1, 15)  (  1,  1, 15)  (  1,  1, 15)
  0  0.7991E-03  1   4.429      0   2.233      0  0.8835      0  0.3407    
   (  1,  1, 15)  (  1,  8, 15)  (  1,  1, 15)  (  1,  1, 15)  (  1,  1, 15)
  0  0.1140      0  0.4032E-01  0  0.1508E-01  0  0.5170E-02  0  0.1558E-02
   (  1,  1, 15)  (  1,  1, 15)  (  1,  1, 15)  (  1,  1, 15)  (  1,  1, 15)
  0  0.5718E-03  1   1.467      0  0.7411      0  0.2900      0  0.1176    
   (  1,  1, 15)  (  1,  8, 15)  (  1,  1, 15)  (  1,  1, 15)  (  1,  1, 15)
  0  0.4201E-01  0  0.1413E-01  0  0.4997E-02  0  0.1630E-02  0  0.5476E-03
   (  1,  1, 15)  (  1,  1, 15)  (  1,  1, 15)  (  1,  1, 15)  (  1,  1, 15)
  1  0.4763      0  0.2425      0  0.9290E-01  0  0.3747E-01  0  0.1455E-01
   (  1,  8, 15)  (  1,  1, 15)  (  1,  1, 15)  (  1,  1, 15)  (  1,  1, 15)
  0  0.4804E-02  0  0.1602E-02  0  0.5373E-03  1  0.1529      0  0.7789E-01
   (  1,  1, 15)  (  1,  1, 15)  (  1,  1, 15)  (  1,  8, 15)  (  1,  1, 15)
  0  0.2869E-01  0  0.1140E-01  0  0.4635E-02  0  0.1514E-02  0  0.4797E-03
   (  1,  1, 15)  (  1,  1, 15)  (  1,  1, 15)  (  1,  1, 15)  (  1,  1, 15)
  1  0.4869E-01  0  0.2476E-01  0  0.8509E-02  0  0.3323E-02  0  0.1381E-02
   (  1,  8, 15)  (  1,  8, 15)  (  1,  1, 15)  (  1,  1, 15)  (  1,  1, 15)
  0  0.4431E-03  1  0.1541E-01  0  0.8028E-02  0  0.2469E-02  0  0.9515E-03
   (  1,  1, 15)  (  1,  8, 15)  (  1,  8, 15)  (  1,  6, 15)  (  1,  6, 15)
  0  0.3911E-03  1  0.4874E-02  0  0.2561E-02  0  0.7424E-03  0  0.2737E-03
   (  1,  1, 15)  (  1,  8, 15)  (  1,  8, 15)  (  1,  6, 15)  (  1,  6, 15)
  1  0.1564E-02  0  0.8118E-03  1  0.6837E-03
   (  1,  8, 15)  (  1,  8, 15)  (  1,  8, 15)



 OUTPUT CONTROL FOR STRESS PERIOD    2   TIME STEP    1
    SAVE HEAD FOR ALL LAYERS
    SAVE BUDGET
 UBDSV1 SAVING "         STORAGE" ON UNIT  53 AT TIME STEP     1, STRESS PERIOD   2
 UBDSV2 SAVING "   CONSTANT HEAD" ON UNIT  53 AT TIME STEP     1, STRESS PERIOD   2
 UBDSV1 SAVING "FLOW RIGHT FACE " ON UNIT  53 AT TIME STEP     1, STRESS PERIOD   2
 UBDSV1 SAVING "FLOW FRONT FACE " ON UNIT  53 AT TIME STEP     1, STRESS PERIOD   2

 HEAD WILL BE SAVED ON UNIT   51 AT END OF TIME STEP    1, STRESS PERIOD    2
1
  VOLUMETRIC BUDGET FOR ENTIRE MODEL AT END OF TIME STEP    1, STRESS PERIOD   2
  ------------------------------------------------------------------------------

     CUMULATIVE VOLUMES      L**3       RATES FOR THIS TIME STEP      L**3/T
     ------------------                 ------------------------

           IN:                                      IN:
           ---                                      ---
             STORAGE =     2445619.5000               STORAGE =        1340.0654
       CONSTANT HEAD =           0.0000         CONSTANT HEAD =           0.0000
               WELLS =     1095600.0000                 WELLS =         600.0000
       RIVER LEAKAGE =      498121.8438         RIVER LEAKAGE =         272.8192
            RECHARGE =     6017384.0000              RECHARGE =        3293.7368

            TOTAL IN =    10056726.0000              TOTAL IN =        5506.6211

          OUT:                                     OUT:
          ----                                     ----
             STORAGE =           0.0000               STORAGE =           0.0000
       CONSTANT HEAD =      575812.3125         CONSTANT HEAD =         315.2695
               WELLS =           0.0000                 WELLS =           0.0000
       RIVER LEAKAGE =     9481011.0000         RIVER LEAKAGE =        5191.4053
            RECHARGE =           0.0000              RECHARGE =           0.0000

           TOTAL OUT =    10056823.0000             TOTAL OUT =        5506.6748

            IN - OUT =         -97.0000              IN - OUT =      -5.3711E-02

 PERCENT DISCREPANCY =          -0.00     PERCENT DISCREPANCY =          -0.00






         TIME SUMMARY AT END OF TIME STEP    1 IN STRESS PERIOD    2
                    SECONDS     MINUTES      HOURS       DAYS        YEARS
                    -----------------------------------------------------------
   TIME STEP LENGTH 1.57680E+08 2.62800E+06  43800.      1825.0      4.9966    
 STRESS PERIOD TIME 1.57680E+08 2.62800E+06  43800.      1825.0      4.9966    
         TOTAL TIME 1.57766E+08 2.62944E+06  43824.      1826.0      4.9993    
1
1
                            STRESS PERIOD NO.    3, LENGTH =   1.000000    
                            -----------------------------------------------

                              NUMBER OF TIME STEPS =     1

                               MULTIPLIER FOR DELT =     1.000

                            INITIAL TIME STEP SIZE =   1.000000    

 WELL NO.  LAYER   ROW   COL   STRESS RATE         
 --------------------------------------------------
      1      1      9     16       100.0    
      2      1     11     13       100.0    
      3      1     20     14       100.0    
      4      1     26     10       100.0    
      5      1     29      6       100.0    
      6      1     34     12       100.0    

      6 WELLS

 REUSING NON-PARAMETER RIVER REACHES FROM LAST STRESS PERIOD

     40 RIVER REACHES

 OPENING FILE ON UNIT   99:
 rech_2.ref                                                                                                                                                                                              



                           RECHARGE
 READING ON UNIT   99 WITH FORMAT: (20G15.6)           
 
 SOLVING FOR HEAD 


    11 CALLS TO PCG ROUTINE FOR TIME STEP     1 IN STRESS PERIOD    3
   109 TOTAL ITERATIONS

 MAXIMUM HEAD CHANGE FOR EACH ITERATION (1 INDICATES THE FIRST INNER ITERATION):

    HEAD CHANGE    HEAD CHANGE    HEAD CHANGE    HEAD CHANGE    HEAD CHANGE 
   LAYER,ROW,COL  LAYER,ROW,COL  LAYER,ROW,COL  LAYER,ROW,COL  LAYER,ROW,COL
 ---------------------------------------------------------------------------
  1  -2.567      0  -1.665      0 -0.9343      0 -0.3319      0 -0.1746    
   (  1,  9,  4)  (  1,  8,  5)  (  1, 32,  1)  (  1, 21,  1)  (  1,  1,  3)
  0 -0.8814E-01  0 -0.4194E-01  0 -0.2306E-01  0  0.8576E-02  0 -0.6035E-02
   (  1,  2,  3)  (  1,  4,  1)  (  1,  2,  1)  (  1, 32,  1)  (  1,  4,  1)
  0 -0.2349E-02  0  0.1734E-02  0 -0.9764E-03  0  0.5440E-03  0 -0.1481E-03
   (  1,  9,  1)  (  1,  9,  4)  (  1,  9,  3)  (  1, 32,  1)  (  1, 35,  4)
  0  0.5621E-04  0 -0.3495E-04  0  0.1506E-04  0 -0.4149E-05  1 -0.3002    
   (  1, 35,  4)  (  1,  2,  1)  (  1,  8,  4)  (  1, 26, 12)  (  1, 26,  5)
  0 -0.1787      0 -0.8502E-01  0 -0.3444E-01  0 -0.2773E-01  0 -0.8395E-02
   (  1,  9,  4)  (  1, 33,  2)  (  1, 27,  4)  (  1,  8,  5)  (  1,  2,  6)
  0  0.4948E-02  0 -0.3089E-02  0 -0.1213E-02  0 -0.6465E-03  0 -0.3254E-03
   (  1, 31,  5)  (  1, 10,  1)  (  1,  5,  1)  (  1,  3,  3)  (  1,  6,  2)
  0  0.1208E-03  0 -0.1243E-03  0 -0.7237E-04  0  0.3139E-04  0 -0.1426E-04
   (  1,  9,  4)  (  1,  9,  3)  (  1,  8,  5)  (  1,  8,  6)  (  1,  7,  3)
  0  0.3547E-05  1  0.1036      0  0.4331E-01  0 -0.5576E-01  0 -0.1299E-01
   (  1,  7, 10)  (  1,  9,  4)  (  1,  8,  5)  (  1,  8,  5)  (  1, 35,  4)
  0  0.7564E-02  0  0.3904E-02  0  0.1723E-02  0  0.7855E-03  0  0.4958E-03
   (  1, 26,  1)  (  1, 13,  3)  (  1, 21,  2)  (  1,  2,  1)  (  1,  2,  1)
  0  0.1901E-03  0  0.9277E-04  0  0.5216E-04  0 -0.3268E-04  0  0.2403E-04
   (  1, 34,  3)  (  1, 20,  3)  (  1, 32,  3)  (  1,  9,  4)  (  1, 16,  4)
  0 -0.5717E-05  1  0.3527E-01  0 -0.1332E-01  0 -0.1397E-01  0  0.3545E-02
   (  1, 11,  1)  (  1,  9,  4)  (  1,  9,  4)  (  1,  8,  5)  (  1, 21,  1)
  0  0.3151E-02  0  0.1340E-02  0  0.6300E-03  0  0.3193E-03  0  0.1069E-03
   (  1, 25,  1)  (  1, 15,  4)  (  1, 25,  1)  (  1,  2,  1)  (  1,  2,  1)
  0  0.6572E-04  0  0.3545E-04  0 -0.1987E-04  0  0.1526E-04  0  0.6444E-05
   (  1, 34,  3)  (  1, 20,  4)  (  1, 11,  1)  (  1,  9,  4)  (  1,  1,  2)
  1  0.8005E-02  0 -0.3277E-02  0 -0.4108E-02  0  0.1106E-02  0  0.9371E-03
   (  1,  8,  5)  (  1,  8,  5)  (  1,  9,  4)  (  1, 23,  5)  (  1, 25,  1)
  0  0.2856E-03  0  0.2073E-03  0  0.8128E-04  0 -0.4390E-04  0  0.1557E-04
   (  1, 32,  1)  (  1, 26,  1)  (  1,  2,  1)  (  1, 11,  1)  (  1,  4,  1)
  0 -0.7813E-05  1  0.1754E-02  0  0.1969E-02  0 -0.8425E-03  0  0.2752E-03
   (  1, 31,  2)  (  1,  8,  5)  (  1,  9,  4)  (  1,  9,  4)  (  1, 24,  4)
  0  0.2056E-03  0  0.1251E-03  0 -0.4182E-04  0  0.2339E-04  0 -0.1147E-04
   (  1,  2,  3)  (  1, 32,  1)  (  1,  8,  4)  (  1,  3,  1)  (  1, 14,  1)
  0 -0.7058E-05  1 -0.3273E-03  0  0.4820E-03  0  0.1361E-03  0  0.7977E-04
   (  1, 30,  4)  (  1,  9,  4)  (  1,  9,  4)  (  1, 32,  1)  (  1, 26,  4)
  0  0.5161E-04  0  0.3354E-04  0  0.1265E-04  0 -0.8597E-05  1 -0.1276E-03
   (  1, 24,  6)  (  1, 28,  1)  (  1, 32,  1)  (  1,  8,  4)  (  1,  9,  4)
  0  0.9529E-04  0  0.5436E-04  0 -0.3281E-04  0  0.1402E-04  0  0.1013E-04
   (  1,  9,  4)  (  1,  8,  5)  (  1,  9,  4)  (  1, 27,  9)  (  1, 29,  3)
  0  0.5000E-05  1 -0.4413E-04  0 -0.2676E-04  0  0.2192E-04  0 -0.1123E-04
   (  1, 32,  1)  (  1,  9,  4)  (  1,  8,  5)  (  1,  8,  5)  (  1,  9,  4)
  0  0.3993E-05  1 -0.1365E-04  0 -0.7597E-05  1  0.6030E-05
   (  1, 27,  9)  (  1,  9,  4)  (  1,  8,  5)  (  1,  8,  5)

 MAXIMUM RESIDUAL FOR EACH ITERATION (1 INDICATES THE FIRST INNER ITERATION):

    RESIDUAL       RESIDUAL       RESIDUAL       RESIDUAL       RESIDUAL    
   LAYER,ROW,COL  LAYER,ROW,COL  LAYER,ROW,COL  LAYER,ROW,COL  LAYER,ROW,COL
 ---------------------------------------------------------------------------
  1  -50.23      0   22.76      0   19.03      0   14.68      0   10.35    
   (  1,  9,  4)  (  1,  1,  6)  (  1,  1, 12)  (  1,  1, 13)  (  1,  1, 15)
  0   8.335      0   4.737      0   2.152      0   1.226      0  0.6152    
   (  1,  1, 15)  (  1,  1, 15)  (  1,  1, 15)  (  1,  1, 15)  (  1,  1, 15)
  0  0.2867      0  0.2344      0  0.1161      0  0.5555E-01  0  0.2571E-01
   (  1,  1, 15)  (  1,  1, 15)  (  1,  1, 15)  (  1,  1, 15)  (  1,  1, 15)
  0  0.1082E-01  0  0.4341E-02  0  0.1942E-02  0  0.9646E-03  1   4.315    
   (  1,  1, 15)  (  1,  1, 15)  (  1,  1, 15)  (  1,  1, 15)  (  1,  1, 12)
  0   4.310      0   3.507      0   2.526      0   2.121      0   1.421    
   (  1,  1, 12)  (  1,  1, 13)  (  1,  1, 15)  (  1,  1, 15)  (  1,  1, 15)
  0  0.7844      0  0.3568      0  0.1583      0  0.6416E-01  0  0.3171E-01
   (  1,  1, 15)  (  1,  1, 15)  (  1,  1, 15)  (  1,  1, 15)  (  1,  1, 15)
  0  0.1812E-01  0  0.1355E-01  0  0.8147E-02  0  0.3883E-02  0  0.1746E-02
   (  1,  1, 15)  (  1,  1, 15)  (  1,  1, 15)  (  1,  1, 15)  (  1,  1, 15)
  0  0.7593E-03  1  -2.476      0  -1.349      0   1.057      0  0.6808    
   (  1,  1, 15)  (  1, 29,  6)  (  1, 29,  6)  (  1, 28, 15)  (  1, 25, 15)
  0  0.5270      0  0.3545      0  0.1736      0  0.8416E-01  0  0.3992E-01
   (  1,  1, 15)  (  1,  1, 15)  (  1,  1, 15)  (  1,  1, 15)  (  1,  1, 15)
  0  0.1764E-01  0  0.7600E-02  0  0.3873E-02  0  0.2752E-02  0  0.1479E-02
   (  1,  1, 15)  (  1,  1, 15)  (  1,  1, 15)  (  1,  1, 15)  (  1,  1, 15)
  0  0.5960E-03  1 -0.8067      0 -0.4772      0  0.3168      0  0.2171    
   (  1,  1, 15)  (  1, 29,  6)  (  1, 29,  6)  (  1, 31, 15)  (  1, 31, 15)
  0  0.1275      0  0.8203E-01  0  0.3733E-01  0  0.1623E-01  0  0.8151E-02
   (  1,  1, 15)  (  1,  1, 15)  (  1,  1, 15)  (  1,  2, 13)  (  1,  2, 13)
  0  0.3845E-02  0  0.1812E-02  0  0.1141E-02  0  0.8205E-03  0  0.3204E-03
   (  1, 27, 15)  (  1, 26, 15)  (  1, 26, 15)  (  1, 26, 15)  (  1, 26, 15)
  1 -0.2135      0  0.1210      0  0.9523E-01  0  0.6730E-01  0  0.3489E-01
   (  1, 29,  6)  (  1,  9,  4)  (  1, 31, 15)  (  1, 31, 15)  (  1, 31, 15)
  0  0.2197E-01  0  0.9714E-02  0  0.3863E-02  0  0.1975E-02  0  0.1057E-02
   (  1,  6, 15)  (  1,  6, 15)  (  1, 30, 15)  (  1, 27, 15)  (  1, 27, 15)
  0  0.5776E-03  1 -0.7198E-01  0  0.3714E-01  0  0.2848E-01  0  0.2062E-01
   (  1, 27, 15)  (  1, 29,  6)  (  1, 25, 15)  (  1, 31, 15)  (  1, 31, 15)
  0  0.9422E-02  0  0.4842E-02  0  0.2525E-02  0  0.1251E-02  0  0.6927E-03
   (  1,  6, 15)  (  1,  6, 15)  (  1, 31, 15)  (  1,  6, 15)  (  1, 30, 15)
  0  0.3697E-03  1 -0.2221E-01  0  0.1179E-01  0  0.8559E-02  0  0.6335E-02
   (  1, 28, 15)  (  1, 26, 10)  (  1, 25, 15)  (  1, 31, 15)  (  1, 31, 15)
  0  0.3036E-02  0  0.1877E-02  0  0.9580E-03  0  0.4498E-03  1 -0.6624E-02
   (  1,  6, 15)  (  1,  6, 15)  (  1,  6, 15)  (  1,  6, 15)  (  1, 26, 10)
  0  0.3708E-02  0  0.2738E-02  0  0.2039E-02  0  0.9785E-03  0  0.5688E-03
   (  1, 25, 15)  (  1, 31, 15)  (  1, 31, 15)  (  1, 34, 15)  (  1,  6, 15)
  0  0.2788E-03  1 -0.1827E-02  0  0.1175E-02  0  0.8970E-03  0  0.6455E-03
   (  1,  6, 15)  (  1, 26, 10)  (  1, 25, 15)  (  1, 31, 15)  (  1, 31, 15)
  0  0.3178E-03  1  0.5808E-03  0  0.4782E-03  1  0.4652E-03
   (  1, 34, 15)  (  1, 33, 15)  (  1, 31, 15)  (  1, 33, 15)



 OUTPUT CONTROL FOR STRESS PERIOD    3   TIME STEP    1
    SAVE HEAD FOR ALL LAYERS
    SAVE BUDGET
 UBDSV2 SAVING "   CONSTANT HEAD" ON UNIT  53 AT TIME STEP     1, STRESS PERIOD   3
 UBDSV1 SAVING "FLOW RIGHT FACE " ON UNIT  53 AT TIME STEP     1, STRESS PERIOD   3
 UBDSV1 SAVING "FLOW FRONT FACE " ON UNIT  53 AT TIME STEP     1, STRESS PERIOD   3

 HEAD WILL BE SAVED ON UNIT   51 AT END OF TIME STEP    1, STRESS PERIOD    3
1
  VOLUMETRIC BUDGET FOR ENTIRE MODEL AT END OF TIME STEP    1, STRESS PERIOD   3
  ------------------------------------------------------------------------------

     CUMULATIVE VOLUMES      L**3       RATES FOR THIS TIME STEP      L**3/T
     ------------------                 ------------------------

           IN:                                      IN:
           ---                                      ---
             STORAGE =     2445619.5000               STORAGE =           0.0000
       CONSTANT HEAD =           4.4070         CONSTANT HEAD =           4.4070
               WELLS =     1096200.0000                 WELLS =         600.0000
       RIVER LEAKAGE =      498425.1875         RIVER LEAKAGE =         303.3315
            RECHARGE =     6020677.5000              RECHARGE =        3293.7368

            TOTAL IN =    10060926.0000              TOTAL IN =        4201.4756

          OUT:                                     OUT:
          ----                                     ----
             STORAGE =           0.0000               STORAGE =           0.0000
       CONSTANT HEAD =      575992.8125         CONSTANT HEAD =         180.5119
               WELLS =           0.0000                 WELLS =           0.0000
       RIVER LEAKAGE =     9485032.0000         RIVER LEAKAGE =        4020.9861
            RECHARGE =           0.0000              RECHARGE =           0.0000

           TOTAL OUT =    10061025.0000             TOTAL OUT =        4201.4980

            IN - OUT =         -99.0000              IN - OUT =      -2.2461E-02

 PERCENT DISCREPANCY =          -0.00     PERCENT DISCREPANCY =          -0.00






         TIME SUMMARY AT END OF TIME STEP    1 IN STRESS PERIOD    3
                    SECONDS     MINUTES      HOURS       DAYS        YEARS
                    -----------------------------------------------------------
   TIME STEP LENGTH  86400.      1440.0      24.000      1.0000     2.73785E-03
 STRESS PERIOD TIME  86400.      1440.0      24.000      1.0000     2.73785E-03
         TOTAL TIME 1.57853E+08 2.63088E+06  43848.      1827.0      5.0021    
1

 Run end date and time (yyyy/mm/dd hh:mm:ss): 2018/01/13  8:42:03
 Elapsed run time:  0.045 Seconds

