                                  MODFLOW-2005     
      U.S. GEOLOGICAL SURVEY MODULAR FINITE-DIFFERENCE GROUND-WATER FLOW MODEL
                            VERSION 1.12.00 2/3/2017

 LIST FILE: freyberg.list
                         UNIT    2

 OPENING freyberg.dis
 FILE TYPE:DIS   UNIT   11   STATUS:OLD    
 FORMAT:FORMATTED              ACCESS:SEQUENTIAL          

 OPENING freyberg.truth.lpf
 FILE TYPE:LPF   UNIT   31   STATUS:OLD    
 FORMAT:FORMATTED              ACCESS:SEQUENTIAL          

 OPENING freyberg.pcg
 FILE TYPE:PCG   UNIT   32   STATUS:OLD    
 FORMAT:FORMATTED              ACCESS:SEQUENTIAL          

 OPENING freyberg.bas
 FILE TYPE:BAS6   UNIT   13   STATUS:OLD    
 FORMAT:FORMATTED              ACCESS:SEQUENTIAL          

 OPENING freyberg.truth.rch
 FILE TYPE:RCH   UNIT   19   STATUS:OLD    
 FORMAT:FORMATTED              ACCESS:SEQUENTIAL          

 OPENING freyberg.truth.wel
 FILE TYPE:WEL   UNIT   20   STATUS:OLD    
 FORMAT:FORMATTED              ACCESS:SEQUENTIAL          

 OPENING freyberg.truth.riv
 FILE TYPE:RIV   UNIT   18   STATUS:OLD    
 FORMAT:FORMATTED              ACCESS:SEQUENTIAL          

 OPENING freyberg.oc
 FILE TYPE:OC   UNIT   14   STATUS:OLD    
 FORMAT:FORMATTED              ACCESS:SEQUENTIAL          

 OPENING freyberg.hds
 FILE TYPE:DATA   UNIT   51   STATUS:REPLACE
 FORMAT:FORMATTED              ACCESS:SEQUENTIAL          

 OPENING freyberg.ddn
 FILE TYPE:DATA(BINARY)   UNIT   52   STATUS:REPLACE
 FORMAT:UNFORMATTED            ACCESS:STREAM              

 OPENING freyberg.cbc
 FILE TYPE:DATA(BINARY)   UNIT   53   STATUS:REPLACE
 FORMAT:UNFORMATTED            ACCESS:STREAM              

 BAS -- BASIC PACKAGE, VERSION 7, 5/2/2005 INPUT READ FROM UNIT   13
 
 MODFLOW was compiled using mixed precision
 Precision of REAL variables:           6
 Precision of DOUBLE PRECISION variables:          15

 DISCRETIZATION INPUT DATA READ FROM UNIT   11
 # Discretization file for MODFLOW, generated by Flopy.
    1 LAYERS        40 ROWS        20 COLUMNS
    3 STRESS PERIOD(S) IN SIMULATION
 MODEL TIME UNIT IS DAYS
 MODEL LENGTH UNIT IS METERS
  Confining bed flag for each layer:
   0



                               DELR
 READING ON UNIT   11 WITH FORMAT: (20G15.6)           



                               DELC
 READING ON UNIT   11 WITH FORMAT: (40G15.6)           

 TOP ELEVATION OF LAYER 1 =   35.0000    

 OPENING FILE ON UNIT   99:
 botm.ref                                                                                                                                                                                                



             MODEL LAYER BOTTOM EL. FOR LAYER   1
 READING ON UNIT   99 WITH FORMAT: (10E12.4)           


 STRESS PERIOD     LENGTH       TIME STEPS     MULTIPLIER FOR DELT    SS FLAG
 ----------------------------------------------------------------------------
        1         1.000000          1                    1.000         SS
        2         1825.000          1                    1.000         TR
        3         1.000000          1                    1.000         SS

 COMBINED STEADY-STATE AND TRANSIENT SIMULATION



 
 # Basic package file for MODFLOW, generated by Flopy.                           
 THE FREE FORMAT OPTION HAS BEEN SELECTED

 OPENING FILE ON UNIT   99:
 ibound.ref                                                                                                                                                                                              



                     BOUNDARY ARRAY FOR LAYER   1
 READING ON UNIT   99 WITH FORMAT: (25I3)              

 AQUIFER HEAD WILL BE SET TO  -999.99     AT ALL NO-FLOW NODES (IBOUND=0).

 OPENING FILE ON UNIT   99:
 strt.ref                                                                                                                                                                                                



                       INITIAL HEAD FOR LAYER   1
 READING ON UNIT   99 WITH FORMAT: (10E12.4)           
 # Output control package file for MODFLOW, generated by Flopy.

 OUTPUT CONTROL IS SPECIFIED ONLY AT TIME STEPS FOR WHICH OUTPUT IS DESIRED
 HEADS WILL BE SAVED WITH FORMAT: (20E15.6)           
 COMPACT CELL-BY-CELL BUDGET FILES WILL BE WRITTEN
 AUXILIARY DATA WILL BE SAVED IN CELL-BY-CELL BUDGET FILES
 HEAD PRINT FORMAT CODE IS   0    DRAWDOWN PRINT FORMAT CODE IS   0
 HEADS WILL BE SAVED ON UNIT   51    DRAWDOWNS WILL BE SAVED ON UNIT   52

 LPF -- LAYER-PROPERTY FLOW PACKAGE, VERSION 7, 5/2/2005
         INPUT READ FROM UNIT   31
 # MODFLOW2000 Layer Property Flow (LPF) Package
 CELL-BY-CELL FLOWS WILL BE SAVED ON UNIT   53
 HEAD AT CELLS THAT CONVERT TO DRY= -1.00000E+30
 No named parameters

   LAYER FLAGS:
 LAYER       LAYTYP        LAYAVG         CHANI        LAYVKA        LAYWET
 ---------------------------------------------------------------------------
    1             1             0     1.000E+00             0             0

   INTERPRETATION OF LAYER FLAGS:
                        INTERBLOCK     HORIZONTAL    DATA IN
         LAYER TYPE   TRANSMISSIVITY   ANISOTROPY   ARRAY VKA   WETTABILITY
 LAYER      (LAYTYP)      (LAYAVG)       (CHANI)      (LAYVKA)      (LAYWET)
 ---------------------------------------------------------------------------
    1   CONVERTIBLE      HARMONIC     1.000E+00    VERTICAL K  NON-WETTABLE

 WETTING CAPABILITY IS NOT ACTIVE IN ANY LAYER

 OPENING FILE ON UNIT   99:
 hk.truth.ref                                                                                                                                                                                            



              HYD. COND. ALONG ROWS FOR LAYER   1
 READING ON UNIT   99 WITH FORMAT: (FREE)              

      VERTICAL HYD. COND. =   1.00000     FOR LAYER   1

         SPECIFIC STORAGE =  1.000000E-04 FOR LAYER   1

           SPECIFIC YIELD =  0.250000     FOR LAYER   1

 WEL -- WELL PACKAGE, VERSION 7, 5/2/2005 INPUT READ FROM UNIT   20
 # Well file for MODFLOW, generated by Flopy.
 No named parameters
 MAXIMUM OF      6 ACTIVE WELLS AT ONE TIME


     0 Well parameters

 RIV -- RIVER PACKAGE, VERSION 7, 5/2/2005 INPUT READ FROM UNIT   18
 # RIV for MODFLOW, generated by Flopy.
 No named parameters
 MAXIMUM OF     40 ACTIVE RIVER REACHES AT ONE TIME


     0 River parameters

 RCH -- RECHARGE PACKAGE, VERSION 7, 5/2/2005 INPUT READ FROM UNIT   19
 # RCH for MODFLOW, generated by Flopy.
 No named parameters
 OPTION 3 -- RECHARGE TO HIGHEST ACTIVE NODE IN EACH VERTICAL COLUMN


     0 Recharge parameters

 PCG -- CONJUGATE-GRADIENT SOLUTION PACKAGE, VERSION 7, 5/2/2005
 MAXIMUM OF    100 CALLS OF SOLUTION ROUTINE
 MAXIMUM OF     25 INTERNAL ITERATIONS PER CALL TO SOLUTION ROUTINE
 MATRIX PRECONDITIONING TYPE :    1
 IHCOFADD option -- When an active cell is surrounded by dry cells, convert
 the cell to dry only if storage and head-dependent boundary flow are 0.



                                    SOLUTION BY THE CONJUGATE-GRADIENT METHOD
                                   -------------------------------------------
                    MAXIMUM NUMBER OF CALLS TO PCG ROUTINE =      100
                        MAXIMUM ITERATIONS PER CALL TO PCG =       25
                               MATRIX PRECONDITIONING TYPE =        1
        RELAXATION FACTOR (ONLY USED WITH PRECOND. TYPE 1) =    0.10000E+01
 PARAMETER OF POLYNOMIAL PRECOND. = 2 (2) OR IS CALCULATED :        2
                         HEAD CHANGE CRITERION FOR CLOSURE =    0.10000E-04
                     RESIDUAL CHANGE CRITERION FOR CLOSURE =    0.10000E+00
            PCG HEAD AND RESIDUAL CHANGE PRINTOUT INTERVAL =        5
     PRINTING FROM SOLVER IS LIMITED(1) OR SUPPRESSED (>1) =        0
                            STEADY-STATE DAMPING PARAMETER =    0.70000E+00
                               TRANSIENT DAMPING PARAMETER =    0.70000E+00
1
                            STRESS PERIOD NO.    1, LENGTH =   1.000000    
                            -----------------------------------------------

                              NUMBER OF TIME STEPS =     1

                               MULTIPLIER FOR DELT =     1.000

                            INITIAL TIME STEP SIZE =   1.000000    

 WELL NO.  LAYER   ROW   COL   STRESS RATE         
 --------------------------------------------------
      1      1      9     16      -708.5    
      2      1     11     13      -354.2    
      3      1     20     14      -337.0    
      4      1     26     10      -71.71    
      5      1     29      6      -62.21    
      6      1     34     12      -371.5    

      6 WELLS

 REACH NO.  LAYER   ROW   COL     STAGE      CONDUCTANCE     BOTTOM EL.         
 -------------------------------------------------------------------------------
      1      1      1     15       20.10           4511.           20.00    
      2      1      2     15       19.87           4511.           19.75    
      3      1      3     15       19.65           4511.           19.50    
      4      1      4     15       19.42           4511.           19.25    
      5      1      5     15       19.19           4511.           19.00    
      6      1      6     15       18.97           4511.           18.75    
      7      1      7     15       18.74           4511.           18.50    
      8      1      8     15       18.51           4511.           18.25    
      9      1      9     15       18.28           4511.           18.00    
     10      1     10     15       19.06           4511.           17.75    
     11      1     11     15       17.83           4511.           17.50    
     12      1     12     15       17.60           4511.           17.25    
     13      1     13     15       17.38           4511.           17.00    
     14      1     14     15       17.15           4511.           16.75    
     15      1     15     15       16.92           4511.           16.50    
     16      1     16     15       16.70           4511.           16.25    
     17      1     17     15       16.47           4511.           16.00    
     18      1     18     15       16.24           4511.           15.75    
     19      1     19     15       16.02           4511.           15.50    
     20      1     20     15       15.79           4511.           15.25    
     21      1     21     15       15.56           4511.           15.00    
     22      1     22     15       15.33           4511.           14.75    
     23      1     23     15       15.11           4511.           14.50    
     24      1     24     15       14.88           4511.           14.25    
     25      1     25     15       14.65           4511.           14.00    
     26      1     26     15       14.43           4511.           13.75    
     27      1     27     15       14.20           4511.           13.50    
     28      1     28     15       13.97           4511.           13.25    
     29      1     29     15       13.75           4511.           13.00    
     30      1     30     15       13.52           4511.           12.75    
     31      1     31     15       13.29           4511.           12.50    
     32      1     32     15       13.07           4511.           12.25    
     33      1     33     15       12.84           4511.           12.00    
     34      1     34     15       12.61           4511.           11.75    
     35      1     35     15       12.38           4511.           11.50    
     36      1     36     15       12.16           4511.           11.25    
     37      1     37     15       11.93           4511.           11.00    
     38      1     38     15       11.70           4511.           10.75    
     39      1     39     15       11.48           4511.           10.50    
     40      1     40     15       11.25           4511.           10.25    

     40 RIVER REACHES

                 RECHARGE =  1.382400E-04
 
 SOLVING FOR HEAD 


    18 CALLS TO PCG ROUTINE FOR TIME STEP   1 IN STRESS PERIOD    1
   230 TOTAL ITERATIONS

 MAXIMUM HEAD CHANGE FOR EACH ITERATION (1 INDICATES THE FIRST INNER ITERATION):

    HEAD CHANGE    HEAD CHANGE    HEAD CHANGE    HEAD CHANGE    HEAD CHANGE 
   LAYER,ROW,COL  LAYER,ROW,COL  LAYER,ROW,COL  LAYER,ROW,COL  LAYER,ROW,COL
 ---------------------------------------------------------------------------
  1  -64.72      0  -27.42      0   18.08      0   10.98      0   4.644    
   (  1, 39,  9)  (  1,  9,  4)  (  1,  9,  4)  (  1, 39,  9)  (  1, 35, 10)
  0  -2.571      0  -1.303      0 -0.4241      0 -0.2402      0 -0.1010    
   (  1, 30,  7)  (  1, 19,  2)  (  1, 37,  5)  (  1,  8,  5)  (  1, 30,  7)
  0 -0.6174E-01  0 -0.3227E-01  0  0.4554E-01  0  0.1510E-01  0 -0.5870E-02
   (  1,  8,  5)  (  1,  9,  4)  (  1,  9,  4)  (  1, 37, 11)  (  1, 38, 12)
  0  0.2422E-02  0 -0.8427E-03  0 -0.4479E-03  0  0.2631E-03  0  0.1372E-03
   (  1, 37, 10)  (  1, 35,  8)  (  1, 36,  9)  (  1, 32,  6)  (  1, 19,  4)
  0 -0.1090E-03  0  0.7772E-04  0 -0.4431E-04  0  0.3615E-04  0  0.1011E-04
   (  1, 10,  1)  (  1,  9,  4)  (  1, 30,  7)  (  1, 29,  7)  (  1, 16,  3)
  1  -16.28      0  -12.33      0   4.560      0   3.125      0   1.477    
   (  1, 39,  9)  (  1,  9,  4)  (  1, 32,  1)  (  1, 39,  9)  (  1, 39, 12)
  0 -0.8021      0 -0.3241      0 -0.1393      0 -0.1090      0 -0.3880E-01
   (  1, 30,  6)  (  1, 19,  2)  (  1, 30,  7)  (  1,  8,  5)  (  1, 26,  8)
  0 -0.1878E-01  0 -0.1251E-01  0  0.9641E-02  0  0.5132E-02  0 -0.1875E-02
   (  1, 33,  2)  (  1,  9,  4)  (  1,  9,  4)  (  1, 36, 11)  (  1, 38, 12)
  0  0.7057E-03  0 -0.2547E-03  0 -0.1105E-03  0 -0.6044E-04  0 -0.3786E-04
   (  1, 37, 10)  (  1, 35,  8)  (  1, 34, 10)  (  1, 36,  8)  (  1,  9,  2)
  0  0.3745E-04  0 -0.2283E-04  0  0.1722E-04  0 -0.7376E-05  1   11.33    
   (  1,  9,  4)  (  1, 35, 10)  (  1, 29,  7)  (  1, 30,  7)  (  1,  9,  4)
  0  -8.651      0  -2.787      0 -0.6673      0 -0.5780      0  0.2328    
   (  1,  9,  4)  (  1,  8,  5)  (  1, 10,  1)  (  1, 29,  7)  (  1, 39, 12)
  0 -0.1888      0 -0.7188E-01  0 -0.4261E-01  0 -0.1729E-01  0  0.7641E-02
   (  1, 30,  4)  (  1, 23,  5)  (  1, 13,  4)  (  1, 27,  8)  (  1, 38, 10)
  0 -0.4674E-02  0 -0.1926E-02  0  0.1587E-02  0  0.5454E-03  0 -0.3145E-03
   (  1, 31,  3)  (  1,  9,  4)  (  1, 36, 11)  (  1, 35, 12)  (  1, 25, 10)
  0 -0.1136E-03  0 -0.6032E-04  0  0.2582E-04  0 -0.1718E-04  0 -0.1075E-04
   (  1, 36,  7)  (  1, 33,  8)  (  1, 30,  6)  (  1, 31,  6)  (  1, 11,  1)
  0  0.9003E-05  1   3.128      0  -2.142      0  -1.030      0  0.2821    
   (  1,  9,  4)  (  1,  9,  4)  (  1,  9,  4)  (  1,  8,  5)  (  1, 34, 12)
  0 -0.2981      0 -0.9214E-01  0 -0.8859E-01  0 -0.2464E-01  0 -0.1698E-01
   (  1, 30,  7)  (  1,  8,  5)  (  1, 31,  5)  (  1, 25,  5)  (  1,  9,  4)
  0 -0.7282E-02  0 -0.3276E-02  0  0.2043E-02  0 -0.1565E-02  0  0.5699E-03
   (  1, 30,  6)  (  1, 22,  8)  (  1,  9,  3)  (  1, 28,  7)  (  1, 36, 11)
  0  0.2108E-03  0 -0.1446E-03  0 -0.5315E-04  0 -0.3040E-04  0  0.1257E-04
   (  1, 27, 11)  (  1, 25, 10)  (  1, 34,  5)  (  1, 33,  8)  (  1, 35, 11)
  0 -0.1056E-04  0  0.4886E-05  1 -0.6754      0 -0.2851      0 -0.3248    
   (  1,  9,  4)  (  1,  9,  4)  (  1, 34, 12)  (  1,  8,  5)  (  1,  9,  4)
  0  0.1258      0 -0.1086      0 -0.3871E-01  0 -0.3081E-01  0  0.9022E-02
   (  1, 34, 12)  (  1, 30,  7)  (  1,  8,  5)  (  1, 31,  5)  (  1, 38, 13)
  0 -0.7715E-02  0 -0.2718E-02  0 -0.1489E-02  0 -0.7991E-03  0 -0.3913E-03
   (  1,  9,  4)  (  1, 33,  2)  (  1, 24,  9)  (  1, 31,  3)  (  1,  9,  4)
  0  0.2480E-03  0 -0.7295E-04  0  0.4771E-04  0 -0.2007E-04  0 -0.1074E-04
   (  1, 34, 12)  (  1,  4,  5)  (  1,  6,  7)  (  1, 36,  5)  (  1, 33,  8)
  0  0.5618E-05  1 -0.3337      0  0.2065      0 -0.1212      0  0.4290E-01
   (  1, 35, 11)  (  1, 34, 12)  (  1,  9,  4)  (  1, 35, 10)  (  1, 34, 12)
  0 -0.2802E-01  0 -0.1286E-01  0 -0.7091E-02  0  0.4041E-02  0 -0.1465E-02
   (  1, 30,  6)  (  1, 33, 11)  (  1, 29,  7)  (  1, 31,  9)  (  1, 32,  1)
  0 -0.1023E-02  0  0.4360E-03  0 -0.3190E-03  0 -0.1627E-03  0  0.1083E-03
   (  1,  8,  4)  (  1,  7,  3)  (  1, 34,  7)  (  1,  9,  4)  (  1, 34, 12)
  0  0.3437E-04  0  0.1677E-04  0 -0.9995E-05  1 -0.1491      0  0.7896E-01
   (  1, 38,  9)  (  1, 36, 10)  (  1, 33,  9)  (  1, 34, 12)  (  1,  9,  4)
  0 -0.3553E-01  0 -0.1909E-01  0  0.1158E-01  0 -0.5632E-02  0 -0.2958E-02
   (  1, 35, 10)  (  1, 29,  7)  (  1, 34, 12)  (  1, 33, 11)  (  1, 32,  7)
  0  0.1315E-02  0  0.6415E-03  0 -0.4234E-03  0 -0.1918E-03  0 -0.1189E-03
   (  1, 30,  7)  (  1, 34, 12)  (  1, 36, 10)  (  1, 25, 11)  (  1,  9,  4)
  0 -0.9135E-04  0  0.4560E-04  0  0.1309E-04  0  0.5094E-05  1 -0.6428E-01
   (  1, 34,  7)  (  1, 35, 11)  (  1, 38,  9)  (  1, 35, 11)  (  1, 34, 12)
  0  0.2367E-01  0 -0.1097E-01  0 -0.6841E-02  0  0.5299E-02  0 -0.1859E-02
   (  1,  9,  4)  (  1, 35, 10)  (  1, 29,  7)  (  1, 34, 12)  (  1, 33, 11)
  0 -0.1191E-02  0  0.4843E-03  0  0.2875E-03  0 -0.1704E-03  0 -0.7061E-04
   (  1, 33, 11)  (  1, 30,  7)  (  1, 34, 12)  (  1, 36, 10)  (  1, 25, 11)
  0  0.4831E-04  0 -0.3292E-04  0  0.1867E-04  0  0.4439E-05  1 -0.2688E-01
   (  1,  9,  4)  (  1,  9,  4)  (  1, 35, 11)  (  1, 26, 10)  (  1, 34, 12)
  0  0.6697E-02  0  0.3225E-02  0 -0.2303E-02  0  0.2005E-02  0  0.7124E-03
   (  1,  9,  4)  (  1,  8,  5)  (  1, 35, 11)  (  1, 34, 12)  (  1, 35, 10)
  0 -0.6821E-03  0 -0.2050E-03  0  0.1091E-03  0 -0.6694E-04  0  0.3046E-04
   (  1, 33, 11)  (  1,  7,  3)  (  1, 34, 12)  (  1, 36, 10)  (  1, 33,  8)
  0 -0.1408E-04  0  0.1227E-04  0  0.7027E-05  1 -0.1079E-01  0 -0.1759E-02
   (  1, 35,  8)  (  1,  9,  4)  (  1, 35, 11)  (  1, 34, 12)  (  1, 35, 10)
  0  0.1342E-02  0 -0.9867E-03  0  0.6602E-03  0  0.3166E-03  0 -0.3107E-03
   (  1,  9,  4)  (  1,  9,  4)  (  1, 34, 12)  (  1, 30,  7)  (  1, 33, 11)
  0  0.7119E-04  0  0.4097E-04  0 -0.2296E-04  0  0.1213E-04  0 -0.6614E-05
   (  1, 32, 13)  (  1,  8,  5)  (  1,  6,  3)  (  1, 33,  8)  (  1, 35,  8)
  1 -0.4218E-02  0 -0.5761E-03  0  0.5696E-03  0  0.3040E-03  0 -0.2226E-03
   (  1, 34, 12)  (  1,  9,  4)  (  1,  9,  4)  (  1, 32,  6)  (  1, 30,  7)
  0  0.1387E-03  0 -0.1232E-03  0  0.3079E-04  0 -0.1932E-04  0  0.1032E-04
   (  1, 29,  7)  (  1, 33, 11)  (  1, 32, 13)  (  1, 36, 10)  (  1,  7,  3)
  0 -0.5013E-05  1 -0.1671E-02  0 -0.2358E-03  0  0.1859E-03  0  0.1340E-03
   (  1,  8,  5)  (  1, 34, 12)  (  1,  9,  4)  (  1,  9,  4)  (  1, 33, 12)
  0 -0.8592E-04  0  0.5676E-04  0 -0.4704E-04  0  0.1416E-04  0 -0.8390E-05
   (  1, 30,  7)  (  1, 29,  7)  (  1, 33, 11)  (  1,  8,  5)  (  1,  9,  4)
  1 -0.6812E-03  0 -0.9275E-04  0  0.6431E-04  0  0.5756E-04  0 -0.3106E-04
   (  1, 34, 12)  (  1,  9,  4)  (  1,  9,  4)  (  1, 33, 12)  (  1, 30,  7)
  0  0.2248E-04  0 -0.1704E-04  0  0.6680E-05  1 -0.2860E-03  0 -0.4316E-04
   (  1, 29,  7)  (  1, 33, 11)  (  1,  7,  3)  (  1, 34, 12)  (  1, 35, 10)
  0  0.2919E-04  0 -0.1781E-04  0 -0.1225E-04  0  0.9475E-05  1 -0.1231E-03
   (  1,  9,  4)  (  1,  9,  4)  (  1, 30,  7)  (  1, 29,  7)  (  1, 34, 12)
  0  0.1557E-04  0  0.2087E-04  0 -0.6705E-05  1 -0.2309E-04  0 -0.3134E-04
   (  1, 29,  7)  (  1, 33, 12)  (  1,  9,  4)  (  1, 34, 12)  (  1, 34, 12)
  0  0.1118E-04  0 -0.4022E-05  1 -0.1161E-04  0 -0.8459E-05  1  0.3412E-05
   (  1, 33, 12)  (  1, 29,  7)  (  1, 34, 12)  (  1, 34, 12)  (  1,  9,  4)

 MAXIMUM RESIDUAL FOR EACH ITERATION (1 INDICATES THE FIRST INNER ITERATION):

    RESIDUAL       RESIDUAL       RESIDUAL       RESIDUAL       RESIDUAL    
   LAYER,ROW,COL  LAYER,ROW,COL  LAYER,ROW,COL  LAYER,ROW,COL  LAYER,ROW,COL
 ---------------------------------------------------------------------------
  1  -4071.      0  -2906.      0  -2067.      0  -1196.      0  -545.6    
   (  1, 39,  9)  (  1, 39,  9)  (  1, 39,  7)  (  1, 39,  7)  (  1, 39,  7)
  0  -306.7      0   158.7      0  -78.43      0  -53.82      0  -32.84    
   (  1, 39,  7)  (  1, 38,  7)  (  1, 39, 15)  (  1, 39, 15)  (  1, 39, 15)
  0  -20.29      0  -15.14      0  -10.21      0  -5.160      0  -2.441    
   (  1, 39, 15)  (  1, 39, 15)  (  1, 39, 15)  (  1, 39, 15)  (  1, 39, 15)
  0  -1.191      0 -0.5546      0 -0.2292      0 -0.1385      0 -0.7727E-01
   (  1, 39, 15)  (  1, 39, 15)  (  1, 39, 15)  (  1, 39, 15)  (  1, 39, 15)
  0 -0.4150E-01  0 -0.3135E-01  0 -0.2096E-01  0 -0.8547E-02  0 -0.3563E-02
   (  1, 39, 15)  (  1, 39, 15)  (  1, 39, 15)  (  1, 39, 15)  (  1, 39, 15)
  1  -851.2      0  -721.2      0  -454.8      0  -256.5      0  -117.4    
   (  1, 39,  9)  (  1, 39,  9)  (  1, 39,  7)  (  1, 39,  7)  (  1, 39,  7)
  0   60.05      0   36.10      0  -19.02      0  -12.78      0  -8.009    
   (  1, 38,  7)  (  1, 38,  7)  (  1, 39, 15)  (  1, 39, 15)  (  1, 39, 15)
  0  -4.761      0  -4.020      0  -2.396      0  -1.234      0 -0.6011    
   (  1, 39, 15)  (  1, 39, 15)  (  1, 39, 15)  (  1, 39, 15)  (  1, 39, 15)
  0 -0.2948      0 -0.1459      0 -0.6382E-01  0 -0.3497E-01  0 -0.2311E-01
   (  1, 39, 15)  (  1, 39, 15)  (  1, 39, 15)  (  1, 39, 15)  (  1, 39, 15)
  0 -0.1882E-01  0 -0.9155E-02  0 -0.5908E-02  0 -0.2453E-02  1   567.5    
   (  1, 39, 15)  (  1, 39, 15)  (  1, 39, 15)  (  1, 39, 15)  (  1,  9,  4)
  0  -155.4      0  -105.5      0  -64.96      0  -25.67      0  -12.27    
   (  1, 39,  9)  (  1, 39,  7)  (  1, 39,  7)  (  1, 39,  7)  (  1, 39,  7)
  0   8.169      0  -4.209      0  -2.852      0  -1.751      0  -1.050    
   (  1, 38,  7)  (  1, 39, 15)  (  1, 39, 15)  (  1, 39, 15)  (  1, 39, 15)
  0 -0.5803      0 -0.5059      0 -0.3010      0 -0.1717      0 -0.8992E-01
   (  1, 39, 15)  (  1, 39, 15)  (  1, 39, 15)  (  1, 39, 15)  (  1, 39, 15)
  0 -0.4652E-01  0 -0.2077E-01  0 -0.1298E-01  0 -0.8040E-02  0 -0.4574E-02
   (  1, 39, 15)  (  1, 39, 15)  (  1, 39, 15)  (  1, 39, 15)  (  1, 39, 15)
  0 -0.3370E-02  1   129.2      0   54.99      0  -30.61      0  -17.52    
   (  1, 39, 15)  (  1, 38, 15)  (  1, 38, 15)  (  1, 34, 12)  (  1, 39,  7)
  0  -7.370      0  -3.936      0  -2.749      0  -1.721      0  -1.006    
   (  1, 39,  7)  (  1,  9, 16)  (  1,  9, 16)  (  1,  9, 16)  (  1,  9, 16)
  0 -0.4812      0 -0.2995      0 -0.2509      0 -0.1580      0 -0.8820E-01
   (  1, 39, 15)  (  1, 39, 15)  (  1, 39, 15)  (  1, 39, 15)  (  1, 39, 15)
  0 -0.5309E-01  0 -0.2914E-01  0 -0.1506E-01  0 -0.6956E-02  0 -0.4495E-02
   (  1, 39, 15)  (  1, 39, 15)  (  1, 39, 15)  (  1, 39, 15)  (  1, 39, 15)
  0 -0.3266E-02  0 -0.2683E-02  1   35.23      0   19.57      0  -13.53    
   (  1, 39, 15)  (  1, 39, 15)  (  1, 38, 15)  (  1, 19, 15)  (  1, 34, 12)
  0  -7.272      0  -3.132      0  -1.859      0  -1.324      0 -0.8200    
   (  1, 34, 12)  (  1, 34, 12)  (  1,  9, 16)  (  1,  9, 16)  (  1,  9, 16)
  0 -0.5120      0 -0.2422      0 -0.1207      0 -0.5477E-01  0 -0.4693E-01
   (  1,  9, 16)  (  1,  9, 16)  (  1,  9, 16)  (  1,  9, 16)  (  1, 39, 15)
  0 -0.2625E-01  0 -0.1538E-01  0 -0.8680E-02  0 -0.4494E-02  0 -0.2167E-02
   (  1, 39, 15)  (  1, 39, 15)  (  1, 39, 15)  (  1, 39, 15)  (  1, 39, 15)
  0 -0.1144E-02  1   21.11      0   10.92      0  -5.451      0  -2.524    
   (  1, 39, 15)  (  1, 39, 15)  (  1, 38, 15)  (  1, 34, 12)  (  1, 34, 12)
  0  -1.373      0 -0.6991      0 -0.4821      0 -0.3133      0 -0.1940    
   (  1, 34, 12)  (  1,  9, 16)  (  1,  9, 16)  (  1,  9, 16)  (  1,  9, 16)
  0 -0.1015      0 -0.5570E-01  0 -0.2636E-01  0 -0.2179E-01  0 -0.8379E-02
   (  1,  9, 16)  (  1,  9, 16)  (  1,  9, 16)  (  1,  9, 16)  (  1,  9, 16)
  0 -0.4168E-02  0 -0.2262E-02  0 -0.1149E-02  1   9.762      0   5.173    
   (  1, 39, 15)  (  1, 39, 15)  (  1, 39, 15)  (  1, 39, 15)  (  1, 39, 15)
  0  -2.541      0  -1.475      0 -0.6076      0 -0.2922      0 -0.2144    
   (  1, 34, 12)  (  1, 34, 12)  (  1, 34, 12)  (  1, 34, 12)  (  1,  9, 16)
  0 -0.1465      0 -0.9476E-01  0 -0.4837E-01  0 -0.2382E-01  0 -0.1931E-01
   (  1,  9, 16)  (  1,  9, 16)  (  1,  9, 16)  (  1,  9, 16)  (  1,  9, 16)
  0 -0.9623E-02  0 -0.3558E-02  0 -0.1510E-02  0  0.6923E-03  1   3.664    
   (  1,  9, 16)  (  1,  9, 16)  (  1,  9, 16)  (  1, 31, 15)  (  1, 39, 15)
  0   2.314      0  -1.112      0 -0.6623      0 -0.2593      0 -0.1291    
   (  1, 39, 15)  (  1, 34, 12)  (  1, 34, 12)  (  1, 34, 12)  (  1, 34, 12)
  0 -0.8605E-01  0 -0.5798E-01  0 -0.3650E-01  0 -0.1862E-01  0 -0.8755E-02
   (  1,  9, 16)  (  1,  9, 16)  (  1,  9, 16)  (  1,  9, 16)  (  1,  9, 16)
  0 -0.6585E-02  0 -0.3709E-02  0 -0.1376E-02  0  0.6313E-03  1   1.386    
   (  1,  9, 16)  (  1,  9, 16)  (  1,  9, 16)  (  1, 31, 15)  (  1, 39, 15)
  0  0.8913      0  0.5059      0 -0.2655      0 -0.1052      0 -0.6005E-01
   (  1, 39, 15)  (  1, 39, 15)  (  1, 34, 12)  (  1, 34, 12)  (  1, 34, 12)
  0 -0.3473E-01  0 -0.2064E-01  0 -0.1306E-01  0 -0.6627E-02  0 -0.3038E-02
   (  1, 34, 12)  (  1,  9, 16)  (  1,  9, 16)  (  1,  9, 16)  (  1,  9, 16)
  0 -0.1701E-02  0 -0.1327E-02  0  0.5443E-03  1  0.5592      0  0.3192    
   (  1,  9, 16)  (  1,  9, 16)  (  1, 31, 15)  (  1, 39, 15)  (  1, 39, 15)
  0  0.1843      0  0.1149      0  0.4743E-01  0  0.2808E-01  0  0.1426E-01
   (  1, 39, 15)  (  1, 38, 15)  (  1, 19, 15)  (  1, 19, 15)  (  1, 19, 15)
  0  0.7455E-02  0  0.4677E-02  0 -0.2143E-02  0 -0.1021E-02  0  0.5876E-03
   (  1, 32, 14)  (  1, 32, 14)  (  1,  9, 16)  (  1,  9, 16)  (  1, 37,  9)
  1  0.2199      0  0.1581      0  0.1059      0  0.5472E-01  0  0.2364E-01
   (  1, 39, 15)  (  1, 39, 15)  (  1, 39, 15)  (  1, 38, 15)  (  1, 38, 15)
  0  0.1327E-01  0  0.6633E-02  0  0.3402E-02  0  0.1966E-02  0  0.8028E-03
   (  1, 19, 15)  (  1, 19, 15)  (  1, 32, 14)  (  1, 32, 14)  (  1, 32, 14)
  0 -0.4511E-03  1  0.7914E-01  0  0.6072E-01  0  0.4283E-01  0  0.2369E-01
   (  1, 31, 14)  (  1, 39, 15)  (  1, 39, 15)  (  1, 39, 15)  (  1, 39, 15)
  0  0.1123E-01  0  0.6001E-02  0  0.3257E-02  0  0.1626E-02  0  0.1007E-02
   (  1, 38, 15)  (  1, 19, 15)  (  1, 32, 15)  (  1, 32, 15)  (  1, 32, 14)
  1  0.2670E-01  0  0.2080E-01  0  0.1559E-01  0  0.9301E-02  0  0.4763E-02
   (  1, 39, 15)  (  1, 39, 15)  (  1, 39, 15)  (  1, 39, 15)  (  1, 38, 15)
  0  0.2465E-02  0  0.1508E-02  0  0.7625E-03  1  0.8699E-02  0  0.6564E-02
   (  1, 32, 15)  (  1, 32, 15)  (  1, 32, 15)  (  1, 39, 15)  (  1, 39, 15)
  0  0.4935E-02  0  0.3357E-02  0  0.1703E-02  0  0.9709E-03  1  0.3326E-02
   (  1, 39, 15)  (  1, 39, 15)  (  1, 39, 15)  (  1, 39, 15)  (  1, 34, 15)
  0  0.2709E-02  0  0.1474E-02  0  0.1209E-02  1  0.3718E-02  0 -0.1480E-02
   (  1, 35, 11)  (  1, 35, 11)  (  1, 35, 11)  (  1, 34, 12)  (  1, 34, 11)
  0  0.1006E-02  0  0.7037E-03  1  0.1439E-02  0  0.7522E-03  1  0.1261E-02
   (  1, 35, 11)  (  1, 35, 11)  (  1, 34, 12)  (  1, 34, 12)  (  1, 34, 12)



 OUTPUT CONTROL FOR STRESS PERIOD    1   TIME STEP    1
    SAVE HEAD FOR ALL LAYERS
    SAVE BUDGET
 UBDSV2 SAVING "   CONSTANT HEAD" ON UNIT  53 AT TIME STEP  1, STRESS PERIOD   1
 UBDSV1 SAVING "FLOW RIGHT FACE " ON UNIT  53 AT TIME STEP  1, STRESS PERIOD   1
 UBDSV1 SAVING "FLOW FRONT FACE " ON UNIT  53 AT TIME STEP  1, STRESS PERIOD   1

 HEAD WILL BE SAVED ON UNIT   51 AT END OF TIME STEP    1, STRESS PERIOD    1
1
  VOLUMETRIC BUDGET FOR ENTIRE MODEL AT END OF TIME STEP    1, STRESS PERIOD   1
  ------------------------------------------------------------------------------

     CUMULATIVE VOLUMES      L**3       RATES FOR THIS TIME STEP      L**3/T
     ------------------                 ------------------------

           IN:                                      IN:
           ---                                      ---
             STORAGE =           0.0000               STORAGE =           0.0000
       CONSTANT HEAD =           0.0000         CONSTANT HEAD =           0.0000
               WELLS =           0.0000                 WELLS =           0.0000
       RIVER LEAKAGE =         363.9366         RIVER LEAKAGE =         363.9366
            RECHARGE =        6004.7998              RECHARGE =        6004.7998

            TOTAL IN =        6368.7363              TOTAL IN =        6368.7363

          OUT:                                     OUT:
          ----                                     ----
             STORAGE =           0.0000               STORAGE =           0.0000
       CONSTANT HEAD =         409.0466         CONSTANT HEAD =         409.0466
               WELLS =        1905.1200                 WELLS =        1905.1200
       RIVER LEAKAGE =        4054.6228         RIVER LEAKAGE =        4054.6228
            RECHARGE =           0.0000              RECHARGE =           0.0000

           TOTAL OUT =        6368.7891             TOTAL OUT =        6368.7891

            IN - OUT =      -5.2734E-02              IN - OUT =      -5.2734E-02

 PERCENT DISCREPANCY =          -0.00     PERCENT DISCREPANCY =          -0.00






         TIME SUMMARY AT END OF TIME STEP    1 IN STRESS PERIOD    1
                    SECONDS     MINUTES      HOURS       DAYS        YEARS
                    -----------------------------------------------------------
   TIME STEP LENGTH  86400.      1440.0      24.000      1.0000     2.73785E-03
 STRESS PERIOD TIME  86400.      1440.0      24.000      1.0000     2.73785E-03
         TOTAL TIME  86400.      1440.0      24.000      1.0000     2.73785E-03
1
1
                            STRESS PERIOD NO.    2, LENGTH =   1825.000    
                            -----------------------------------------------

                              NUMBER OF TIME STEPS =     1

                               MULTIPLIER FOR DELT =     1.000

                            INITIAL TIME STEP SIZE =   1825.000    

 WELL NO.  LAYER   ROW   COL   STRESS RATE         
 --------------------------------------------------
      1      1      9     16      -885.6    
      2      1     11     13      -442.8    
      3      1     20     14      -421.2    
      4      1     26     10      -89.64    
      5      1     29      6      -77.76    
      6      1     34     12      -464.4    

      6 WELLS

 REUSING NON-PARAMETER RIVER REACHES FROM LAST STRESS PERIOD

     40 RIVER REACHES

                 RECHARGE =  9.000000E-05
 
 SOLVING FOR HEAD 


    22 CALLS TO PCG ROUTINE FOR TIME STEP   1 IN STRESS PERIOD    2
   102 TOTAL ITERATIONS

 MAXIMUM HEAD CHANGE FOR EACH ITERATION (1 INDICATES THE FIRST INNER ITERATION):

    HEAD CHANGE    HEAD CHANGE    HEAD CHANGE    HEAD CHANGE    HEAD CHANGE 
   LAYER,ROW,COL  LAYER,ROW,COL  LAYER,ROW,COL  LAYER,ROW,COL  LAYER,ROW,COL
 ---------------------------------------------------------------------------
  1  -1.192      0  0.7094E-01  0  0.2804E-01  0  0.5932E-02  0  0.1476E-02
   (  1, 34, 12)  (  1, 11, 13)  (  1, 34, 12)  (  1, 35, 10)  (  1, 36, 11)
  0  0.4746E-03  0 -0.1481E-03  0 -0.4985E-04  0 -0.9559E-05  1 -0.6240    
   (  1, 35, 11)  (  1,  9,  4)  (  1,  8,  5)  (  1,  9,  4)  (  1, 34, 12)
  0 -0.4379E-01  0  0.9157E-02  0  0.2531E-02  0 -0.6483E-03  0 -0.2243E-03
   (  1, 35, 11)  (  1, 34, 12)  (  1, 35, 10)  (  1,  9,  4)  (  1,  8,  5)
  0 -0.6262E-04  0  0.1404E-04  0  0.3364E-05  1 -0.3383      0 -0.2508E-01
   (  1,  9,  4)  (  1, 16, 10)  (  1, 35,  6)  (  1, 34, 12)  (  1, 35, 11)
  0 -0.4591E-02  0  0.1219E-02  0 -0.2997E-03  0 -0.9359E-04  0 -0.2245E-04
   (  1, 35, 11)  (  1, 35, 10)  (  1,  9,  4)  (  1,  8,  5)  (  1,  9,  4)
  0  0.6511E-05  1 -0.1898      0 -0.1470E-01  0 -0.2037E-02  0  0.6152E-03
   (  1, 31, 14)  (  1, 34, 12)  (  1, 35, 11)  (  1, 35, 11)  (  1, 35, 10)
  0 -0.1311E-03  0 -0.5529E-04  0 -0.8935E-05  1 -0.1082      0 -0.8755E-02
   (  1,  9,  4)  (  1, 36, 10)  (  1,  9,  4)  (  1, 34, 12)  (  1, 35, 11)
  0 -0.9525E-03  0  0.2766E-03  0 -0.8155E-04  0 -0.2682E-04  0 -0.4130E-05
   (  1, 33, 13)  (  1, 35, 10)  (  1, 36, 10)  (  1, 36, 10)  (  1,  9,  4)
  1 -0.6201E-01  0 -0.5168E-02  0  0.6220E-03  0  0.1078E-03  0 -0.4666E-04
   (  1, 34, 12)  (  1, 35, 11)  (  1, 35, 10)  (  1, 35, 10)  (  1, 36, 10)
  0 -0.1169E-04  0  0.2449E-05  1 -0.3560E-01  0 -0.3017E-02  0  0.3894E-03
   (  1, 36, 10)  (  1, 31, 14)  (  1, 34, 12)  (  1, 35, 11)  (  1, 35, 10)
  0 -0.4655E-04  0 -0.2328E-04  0 -0.5134E-05  1 -0.2046E-01  0 -0.1750E-02
   (  1, 36, 10)  (  1, 36, 10)  (  1, 36, 10)  (  1, 34, 12)  (  1, 35, 11)
  0  0.2310E-03  0 -0.3037E-04  0 -0.1111E-04  0  0.2478E-05  1 -0.1176E-01
   (  1, 35, 10)  (  1, 36, 10)  (  1, 36, 10)  (  1, 37,  5)  (  1, 34, 12)
  0 -0.1011E-02  0  0.1340E-03  0 -0.1858E-04  0 -0.5628E-05  1 -0.6760E-02
   (  1, 35, 11)  (  1, 35, 10)  (  1, 36, 10)  (  1, 36, 10)  (  1, 34, 12)
  0 -0.5828E-03  0  0.7724E-04  0 -0.1114E-04  0 -0.2972E-05  1 -0.3886E-02
   (  1, 35, 11)  (  1, 35, 10)  (  1, 36, 10)  (  1, 36, 10)  (  1, 34, 12)
  0 -0.3356E-03  0  0.4441E-04  0 -0.6501E-05  1 -0.2234E-02  0 -0.1931E-03
   (  1, 35, 11)  (  1, 35, 10)  (  1, 36, 10)  (  1, 34, 12)  (  1, 35, 11)
  0  0.2521E-04  0 -0.3432E-05  1 -0.1284E-02  0 -0.1110E-03  0  0.1403E-04
   (  1, 35, 10)  (  1, 36, 10)  (  1, 34, 12)  (  1, 35, 11)  (  1, 35, 10)
  0 -0.1692E-05  1 -0.7388E-03  0 -0.6383E-04  0  0.7708E-05  1 -0.4246E-03
   (  1, 36, 10)  (  1, 34, 12)  (  1, 35, 11)  (  1, 35, 10)  (  1, 34, 12)
  0 -0.3666E-04  0  0.3861E-05  1 -0.2441E-03  0 -0.2101E-04  0  0.1937E-05
   (  1, 35, 11)  (  1, 35, 10)  (  1, 34, 12)  (  1, 35, 11)  (  1, 35, 10)
  1 -0.1401E-03  0 -0.1214E-04  0  0.1167E-05  1 -0.8082E-04  0 -0.7008E-05
   (  1, 34, 12)  (  1, 35, 11)  (  1, 35, 10)  (  1, 34, 12)  (  1, 35, 11)
  1 -0.4638E-04  0 -0.3609E-05  1 -0.2644E-04  0 -0.1426E-05  1 -0.1471E-04
   (  1, 34, 12)  (  1, 35, 11)  (  1, 34, 12)  (  1, 35, 11)  (  1, 34, 12)
  0 -0.8579E-06  1 -0.8678E-05
   (  1,  8,  5)  (  1, 34, 12)

 MAXIMUM RESIDUAL FOR EACH ITERATION (1 INDICATES THE FIRST INNER ITERATION):

    RESIDUAL       RESIDUAL       RESIDUAL       RESIDUAL       RESIDUAL    
   LAYER,ROW,COL  LAYER,ROW,COL  LAYER,ROW,COL  LAYER,ROW,COL  LAYER,ROW,COL
 ---------------------------------------------------------------------------
  1   12.86      0   3.968      0   1.034      0  0.3192      0  0.9700E-01
   (  1, 19, 15)  (  1, 19, 15)  (  1, 19, 15)  (  1,  9, 15)  (  1,  9, 15)
  0  0.3067E-01  0  0.1201E-01  0  0.3807E-02  0  0.1191E-02  1   6.341    
   (  1, 19, 15)  (  1, 19, 15)  (  1, 19, 15)  (  1, 19, 15)  (  1,  9, 16)
  0   1.352      0  0.4032      0  0.1232      0  0.4226E-01  0  0.1407E-01
   (  1, 19, 15)  (  1,  8, 17)  (  1, 19, 15)  (  1, 19, 15)  (  1, 19, 15)
  0  0.4972E-02  0  0.1488E-02  0  0.4761E-03  1   3.012      0  0.7290    
   (  1, 19, 15)  (  1, 31, 15)  (  1, 31, 15)  (  1, 35, 11)  (  1, 35, 11)
  0 -0.1973      0  0.5671E-01  0  0.2266E-01  0  0.5733E-02  0  0.2333E-02
   (  1, 35, 10)  (  1, 32, 14)  (  1, 32, 14)  (  1, 19, 15)  (  1, 31, 15)
  0  0.8654E-03  1   1.795      0  0.3678      0 -0.1030      0  0.3475E-01
   (  1, 31, 15)  (  1, 35, 11)  (  1, 35, 11)  (  1, 35, 10)  (  1, 32, 14)
  0  0.1268E-01  0 -0.2617E-02  0  0.1233E-02  1   1.064      0  0.1789    
   (  1, 32, 14)  (  1, 31, 14)  (  1, 31, 15)  (  1, 35, 11)  (  1, 35, 11)
  0 -0.4876E-01  0  0.1987E-01  0  0.6299E-02  0 -0.1465E-02  0  0.6338E-03
   (  1, 32, 13)  (  1, 32, 14)  (  1, 32, 14)  (  1, 31, 14)  (  1, 31, 15)
  1  0.6252      0 -0.9904E-01  0 -0.2394E-01  0  0.1070E-01  0  0.2964E-02
   (  1, 35, 11)  (  1, 35, 10)  (  1, 32, 13)  (  1, 32, 14)  (  1, 32, 14)
  0 -0.7762E-03  0  0.3263E-03  1  0.3645      0 -0.5747E-01  0  0.1288E-01
   (  1, 31, 14)  (  1, 31, 15)  (  1, 35, 11)  (  1, 35, 10)  (  1, 32, 14)
  0  0.5416E-02  0  0.1403E-02  0  0.3970E-03  1  0.2115      0 -0.3307E-01
   (  1, 32, 14)  (  1, 32, 14)  (  1, 37,  9)  (  1, 35, 11)  (  1, 35, 10)
  0  0.7438E-02  0  0.2726E-02  0  0.7016E-03  0  0.2162E-03  1  0.1222    
   (  1, 32, 14)  (  1, 32, 14)  (  1, 32, 14)  (  1, 37,  9)  (  1, 35, 11)
  0 -0.1898E-01  0  0.4291E-02  0  0.1428E-02  0  0.3530E-03  1  0.7053E-01
   (  1, 35, 10)  (  1, 32, 14)  (  1, 32, 14)  (  1, 32, 14)  (  1, 35, 11)
  0 -0.1090E-01  0  0.2475E-02  0  0.7566E-03  0 -0.1740E-03  1  0.4063E-01
   (  1, 35, 10)  (  1, 32, 14)  (  1, 32, 14)  (  1, 31, 14)  (  1, 35, 11)
  0 -0.6261E-02  0  0.1425E-02  0  0.4179E-03  1  0.2340E-01  0 -0.3594E-02
   (  1, 35, 10)  (  1, 32, 14)  (  1, 32, 14)  (  1, 35, 11)  (  1, 35, 10)
  0  0.8276E-03  0  0.2953E-03  1  0.1347E-01  0 -0.2059E-02  0  0.4827E-03
   (  1, 32, 14)  (  1, 32, 14)  (  1, 35, 11)  (  1, 35, 10)  (  1, 32, 14)
  0  0.2119E-03  1  0.7759E-02  0 -0.1178E-02  0  0.2821E-03  1  0.4483E-02
   (  1, 32, 14)  (  1, 35, 11)  (  1, 35, 10)  (  1, 32, 14)  (  1, 35, 11)
  0 -0.6746E-03  0 -0.1959E-03  1  0.2588E-02  0 -0.3906E-03  0 -0.1375E-03
   (  1, 35, 10)  (  1, 32, 13)  (  1, 35, 11)  (  1, 35, 10)  (  1, 35, 10)
  1  0.1493E-02  0 -0.2282E-03  0 -0.7671E-04  1  0.8614E-03  0 -0.1326E-03
   (  1, 35, 11)  (  1, 35, 10)  (  1, 32, 13)  (  1, 35, 11)  (  1, 35, 10)
  1  0.5040E-03  0  0.1286E-03  1  0.2929E-03  0  0.1420E-03  1  0.1658E-03
   (  1, 35, 11)  (  1, 35, 11)  (  1, 35, 11)  (  1, 35, 11)  (  1, 35, 11)
  0  0.9218E-04  1  0.9828E-04
   (  1, 35, 11)  (  1, 35, 11)



 OUTPUT CONTROL FOR STRESS PERIOD    2   TIME STEP    1
    SAVE HEAD FOR ALL LAYERS
    SAVE BUDGET
 UBDSV1 SAVING "         STORAGE" ON UNIT  53 AT TIME STEP  1, STRESS PERIOD   2
 UBDSV2 SAVING "   CONSTANT HEAD" ON UNIT  53 AT TIME STEP  1, STRESS PERIOD   2
 UBDSV1 SAVING "FLOW RIGHT FACE " ON UNIT  53 AT TIME STEP  1, STRESS PERIOD   2
 UBDSV1 SAVING "FLOW FRONT FACE " ON UNIT  53 AT TIME STEP  1, STRESS PERIOD   2

 HEAD WILL BE SAVED ON UNIT   51 AT END OF TIME STEP    1, STRESS PERIOD    2
1
  VOLUMETRIC BUDGET FOR ENTIRE MODEL AT END OF TIME STEP    1, STRESS PERIOD   2
  ------------------------------------------------------------------------------

     CUMULATIVE VOLUMES      L**3       RATES FOR THIS TIME STEP      L**3/T
     ------------------                 ------------------------

           IN:                                      IN:
           ---                                      ---
             STORAGE =     2765475.0000               STORAGE =        1515.3287
       CONSTANT HEAD =           0.0000         CONSTANT HEAD =           0.0000
               WELLS =           0.0000                 WELLS =           0.0000
       RIVER LEAKAGE =      961466.1250         RIVER LEAKAGE =         526.6313
            RECHARGE =     7140614.5000              RECHARGE =        3909.3750

            TOTAL IN =    10867556.0000              TOTAL IN =        5951.3350

          OUT:                                     OUT:
          ----                                     ----
             STORAGE =           0.0000               STORAGE =           0.0000
       CONSTANT HEAD =      653700.8125         CONSTANT HEAD =         357.9681
               WELLS =     4347960.0000                 WELLS =        2381.3999
       RIVER LEAKAGE =     5866000.5000         RIVER LEAKAGE =        3212.0251
            RECHARGE =           0.0000              RECHARGE =           0.0000

           TOTAL OUT =    10867661.0000             TOTAL OUT =        5951.3931

            IN - OUT =        -105.0000              IN - OUT =      -5.8105E-02

 PERCENT DISCREPANCY =          -0.00     PERCENT DISCREPANCY =          -0.00






         TIME SUMMARY AT END OF TIME STEP    1 IN STRESS PERIOD    2
                    SECONDS     MINUTES      HOURS       DAYS        YEARS
                    -----------------------------------------------------------
   TIME STEP LENGTH 1.57680E+08 2.62800E+06  43800.      1825.0      4.9966    
 STRESS PERIOD TIME 1.57680E+08 2.62800E+06  43800.      1825.0      4.9966    
         TOTAL TIME 1.57766E+08 2.62944E+06  43824.      1826.0      4.9993    
1
1
                            STRESS PERIOD NO.    3, LENGTH =   1.000000    
                            -----------------------------------------------

                              NUMBER OF TIME STEPS =     1

                               MULTIPLIER FOR DELT =     1.000

                            INITIAL TIME STEP SIZE =   1.000000    

 WELL NO.  LAYER   ROW   COL   STRESS RATE         
 --------------------------------------------------
      1      1      9     16      -885.6    
      2      1     11     13      -442.8    
      3      1     20     14      -421.2    
      4      1     26     10      -89.64    
      5      1     29      6      -77.76    
      6      1     34     12      -464.4    

      6 WELLS

 REUSING NON-PARAMETER RIVER REACHES FROM LAST STRESS PERIOD

     40 RIVER REACHES

                 RECHARGE =  9.000000E-05
 
 SOLVING FOR HEAD 

 CELL CONVERSIONS FOR ITER.=  6  LAYER=  1  STEP=  1  PERIOD=   3   (ROW,COL)
    DRY( 34, 12)   


    16 CALLS TO PCG ROUTINE FOR TIME STEP   1 IN STRESS PERIOD    3
   219 TOTAL ITERATIONS

 MAXIMUM HEAD CHANGE FOR EACH ITERATION (1 INDICATES THE FIRST INNER ITERATION):

    HEAD CHANGE    HEAD CHANGE    HEAD CHANGE    HEAD CHANGE    HEAD CHANGE 
   LAYER,ROW,COL  LAYER,ROW,COL  LAYER,ROW,COL  LAYER,ROW,COL  LAYER,ROW,COL
 ---------------------------------------------------------------------------
  1  -1.458      0  -1.259      0 -0.7912      0 -0.3796      0 -0.2603    
   (  1,  9,  4)  (  1,  8,  5)  (  1, 32,  1)  (  1, 30,  7)  (  1,  8,  5)
  0 -0.1233      0 -0.8892E-01  0 -0.4646E-01  0 -0.1896E-01  0 -0.1322E-01
   (  1, 32,  6)  (  1,  2,  5)  (  1,  4,  1)  (  1, 38, 13)  (  1,  4,  1)
  0  0.5761E-02  0 -0.5026E-02  0 -0.2512E-02  0  0.1223E-02  0  0.5170E-03
   (  1,  9,  4)  (  1,  9,  4)  (  1, 34, 11)  (  1, 33,  2)  (  1, 25, 10)
  0 -0.2002E-03  0  0.1179E-03  0 -0.5197E-04  0 -0.3573E-04  0  0.2042E-04
   (  1, 33, 11)  (  1, 34, 10)  (  1, 30,  6)  (  1, 17,  4)  (  1,  9,  3)
  0 -0.1338E-04  0  0.6011E-05  1 -0.7223      0 -0.2742      0  0.8780E-01
   (  1, 31, 11)  (  1, 29,  7)  (  1, 34, 12)  (  1, 34, 12)  (  1,  9,  4)
  0 -0.7202E-01  0  0.3477E-01  0 -0.2948E-01  0 -0.1637E-01  0  0.1056E-01
   (  1,  9,  4)  (  1, 28,  1)  (  1, 32,  6)  (  1,  6,  3)  (  1,  8,  4)
  0 -0.5049E-02  0  0.2811E-02  0  0.1069E-02  0 -0.6396E-03  0  0.5044E-03
   (  1,  6,  1)  (  1, 35, 10)  (  1, 22,  8)  (  1, 10,  1)  (  1,  9,  4)
  0 -0.2386E-03  0  0.8112E-04  0 -0.3375E-04  0 -0.1615E-04  0  0.1258E-04
   (  1,  8,  3)  (  1, 25,  3)  (  1, 38, 11)  (  1, 30,  6)  (  1, 31,  7)
  0 -0.6990E-05  1 -0.8062      0 -0.1904      0  0.7229E-01  0 -0.6145E-01
   (  1, 34, 10)  (  1, 34, 12)  (  1, 34, 12)  (  1, 32,  9)  (  1, 29,  7)
  0  0.3859E-01  0 -0.2622E-01  0 -0.1318E-01  0 -0.7383E-02  0  0.2850E-02
   (  1, 33, 11)  (  1, 35, 11)  (  1, 33, 13)  (  1, 32,  1)  (  1, 35,  7)
  0  0.1590E-02  0 -0.9494E-03  0 -0.4104E-03  0  0.2344E-03  0  0.1463E-03
   (  1, 36, 11)  (  1, 36, 10)  (  1,  9,  4)  (  1, 10,  4)  (  1, 37, 10)
  0 -0.6693E-04  0 -0.2498E-04  0 -0.1192E-04  0  0.8094E-05  1  -1.261    
   (  1, 28,  8)  (  1, 35,  5)  (  1,  5,  6)  (  1, 26,  1)  (  1, 34, 12)
  0 -0.9923E-01  0  0.6891E-01  0  0.4550E-01  0  0.2925E-01  0  0.2513E-01
   (  1, 34, 12)  (  1,  9,  4)  (  1, 33, 12)  (  1,  7,  3)  (  1, 29,  7)
  0 -0.1841E-01  0  0.6908E-02  0 -0.2978E-02  0 -0.1903E-02  0 -0.1163E-02
   (  1, 35, 11)  (  1,  8,  5)  (  1,  7,  3)  (  1, 32, 14)  (  1, 36, 10)
  0 -0.3531E-03  0  0.2356E-03  0 -0.1875E-03  0 -0.7062E-04  0 -0.3264E-04
   (  1, 27, 10)  (  1,  9,  4)  (  1,  9,  4)  (  1, 24, 10)  (  1, 36,  7)
  0  0.1243E-04  0 -0.6527E-05  1  -2.781      0 -0.1595      0 -0.1432    
   (  1, 26,  2)  (  1, 30,  6)  (  1, 34, 12)  (  1, 35, 10)  (  1,  9,  4)
  0  0.1014      0 -0.5455E-01  0  0.4867E-01  0 -0.3266E-01  0  0.1195E-01
   (  1, 33, 12)  (  1, 30,  7)  (  1, 29,  7)  (  1, 33, 11)  (  1,  8,  5)
  0 -0.6789E-02  0 -0.3370E-02  0 -0.1886E-02  0  0.6637E-03  0  0.4005E-03
   (  1,  7,  3)  (  1, 32, 14)  (  1, 36, 10)  (  1, 34, 11)  (  1,  9,  4)
  0  0.2505E-03  0 -0.1265E-03  0 -0.7130E-04  0 -0.2193E-04  0  0.1294E-04
   (  1, 37, 10)  (  1, 37,  9)  (  1, 26, 10)  (  1, 21, 11)  (  1, 34, 11)
  0 -0.5946E-05  1   1.757      0  0.7931      0  0.5102      0  0.3608    
   (  1, 32,  7)  (  1, 34, 11)  (  1, 33, 12)  (  1, 33, 12)  (  1, 35, 12)
  0 -0.1836      0  0.1249      0 -0.7445E-01  0  0.2372E-01  0 -0.1879E-01
   (  1, 29,  1)  (  1, 35, 10)  (  1, 29, 11)  (  1,  5,  1)  (  1,  8,  4)
  0  0.7196E-02  0  0.4461E-02  0  0.1788E-02  0 -0.1259E-02  0  0.6485E-03
   (  1,  6,  2)  (  1, 33, 12)  (  1, 26, 11)  (  1,  9,  4)  (  1, 32,  1)
  0 -0.4856E-03  0 -0.1602E-03  0 -0.7711E-04  0  0.5691E-04  0  0.2228E-04
   (  1, 38, 11)  (  1, 39, 14)  (  1, 33,  7)  (  1, 30,  6)  (  1, 38, 11)
  0  0.8529E-05  1  0.5442      0  0.1991      0  0.1148      0  0.9774E-01
   (  1,  6,  7)  (  1, 34, 11)  (  1, 33, 12)  (  1,  9,  4)  (  1, 35, 12)
  0 -0.5595E-01  0  0.3352E-01  0 -0.1861E-01  0  0.7095E-02  0  0.3697E-02
   (  1, 29,  1)  (  1, 34, 11)  (  1, 29, 11)  (  1, 27, 10)  (  1,  6,  2)
  0 -0.2075E-02  0  0.1259E-02  0 -0.7409E-03  0  0.4562E-03  0  0.2111E-03
   (  1, 36, 10)  (  1,  9,  3)  (  1,  9,  4)  (  1,  9,  4)  (  1, 32,  1)
  0 -0.1547E-03  0 -0.5009E-04  0 -0.2008E-04  0  0.8919E-05  1  0.1512    
   (  1, 37, 11)  (  1, 39, 14)  (  1, 39, 14)  (  1, 38, 11)  (  1, 33, 12)
  0 -0.5321E-01  0  0.3184E-01  0  0.2772E-01  0 -0.1490E-01  0 -0.9623E-02
   (  1,  9,  4)  (  1,  9,  4)  (  1, 35, 12)  (  1, 28,  1)  (  1, 32,  1)
  0  0.5040E-02  0 -0.2133E-02  0  0.1469E-02  0 -0.8195E-03  0  0.3091E-03
   (  1, 33, 12)  (  1,  8,  5)  (  1,  6,  2)  (  1, 36, 10)  (  1, 39, 13)
  0  0.1845E-03  0 -0.1659E-03  0  0.5457E-04  0 -0.3740E-04  0  0.1367E-04
   (  1,  9,  4)  (  1,  9,  4)  (  1, 35, 10)  (  1, 37, 11)  (  1, 34, 11)
  0 -0.5678E-05  1  0.4404E-01  0 -0.1686E-01  0  0.8706E-02  0  0.7340E-02
   (  1, 39, 14)  (  1, 33, 12)  (  1,  9,  4)  (  1, 35, 12)  (  1, 35, 12)
  0 -0.4695E-02  0  0.1787E-02  0  0.1490E-02  0 -0.5732E-03  0  0.4483E-03
   (  1, 31,  1)  (  1, 35, 10)  (  1, 33, 12)  (  1,  8,  5)  (  1,  7,  3)
  0 -0.2072E-03  0  0.9690E-04  0  0.5706E-04  0 -0.2825E-04  0  0.1682E-04
   (  1, 36, 10)  (  1, 39, 13)  (  1,  9,  4)  (  1, 28,  8)  (  1, 35, 10)
  0 -0.8557E-05  1  0.1227E-01  0 -0.5076E-02  0  0.2822E-02  0 -0.2242E-02
   (  1, 37, 11)  (  1, 33, 12)  (  1,  9,  4)  (  1, 35, 12)  (  1, 32,  9)
  0 -0.9126E-03  0 -0.9819E-03  0  0.4232E-03  0 -0.1611E-03  0  0.1244E-03
   (  1, 32,  1)  (  1, 33,  8)  (  1, 33, 12)  (  1, 39, 12)  (  1,  7,  3)
  0 -0.4411E-04  0  0.2460E-04  0 -0.1558E-04  0  0.1030E-04  0  0.5584E-05
   (  1, 37, 12)  (  1,  9,  4)  (  1,  9,  4)  (  1, 27, 10)  (  1, 33,  2)
  1  0.3455E-02  0 -0.1476E-02  0  0.8398E-03  0 -0.7043E-03  0  0.3002E-03
   (  1, 33, 12)  (  1,  9,  4)  (  1, 35, 12)  (  1, 32,  9)  (  1, 30,  7)
  0 -0.3657E-03  0  0.1010E-03  0 -0.5127E-04  0  0.3671E-04  0  0.1072E-04
   (  1, 33,  8)  (  1, 33, 12)  (  1, 38, 12)  (  1,  7,  3)  (  1, 28,  3)
  0  0.6504E-05  1  0.9972E-03  0 -0.4158E-03  0  0.2316E-03  0 -0.2049E-03
   (  1,  9,  4)  (  1, 33, 12)  (  1,  9,  4)  (  1, 35, 12)  (  1, 32,  9)
  0  0.1023E-03  0 -0.1122E-03  0  0.3102E-04  0 -0.1627E-04  0  0.1069E-04
   (  1, 30,  7)  (  1, 33,  8)  (  1, 35, 10)  (  1,  8,  5)  (  1,  7,  3)
  0  0.4008E-05  1  0.2910E-03  0 -0.1100E-03  0  0.7747E-04  0 -0.5623E-04
   (  1, 29, 11)  (  1, 33, 12)  (  1,  9,  4)  (  1,  9,  4)  (  1, 32,  9)
  0  0.3257E-04  0 -0.3471E-04  0  0.1034E-04  0 -0.5281E-05  1  0.8438E-04
   (  1, 30,  7)  (  1, 33, 10)  (  1, 34, 11)  (  1,  6,  2)  (  1, 33, 12)
  0  0.2866E-04  0  0.2386E-04  0 -0.1512E-04  0  0.1050E-04  0 -0.1129E-04
   (  1, 34, 13)  (  1,  9,  4)  (  1, 32, 11)  (  1, 30,  7)  (  1, 33, 10)
  0  0.3354E-05  1  0.2306E-04  0  0.9941E-05  1 -0.4526E-05
   (  1, 34, 11)  (  1, 33, 12)  (  1, 35, 12)  (  1, 30,  6)

 MAXIMUM RESIDUAL FOR EACH ITERATION (1 INDICATES THE FIRST INNER ITERATION):

    RESIDUAL       RESIDUAL       RESIDUAL       RESIDUAL       RESIDUAL    
   LAYER,ROW,COL  LAYER,ROW,COL  LAYER,ROW,COL  LAYER,ROW,COL  LAYER,ROW,COL
 ---------------------------------------------------------------------------
  1   70.86      0   17.99      0   17.70      0   14.72      0   11.87    
   (  1,  8,  5)  (  1, 37,  6)  (  1, 39,  6)  (  1,  1, 10)  (  1,  1, 13)
  0   9.873      0   7.370      0   4.967      0   2.548      0   1.326    
   (  1,  2, 15)  (  1,  1, 15)  (  1,  1, 15)  (  1,  1, 15)  (  1,  1, 15)
  0  0.7072      0  0.4811      0  0.1950      0  0.9213E-01  0  0.4983E-01
   (  1,  1, 15)  (  1,  1, 15)  (  1,  1, 15)  (  1,  1, 15)  (  1,  1, 15)
  0  0.2557E-01  0  0.1272E-01  0  0.9352E-02  0  0.4426E-02  0  0.3786E-02
   (  1,  1, 15)  (  1,  1, 15)  (  1,  1, 15)  (  1,  1, 15)  (  1,  1, 15)
  0  0.2082E-02  0  0.1291E-02  1   23.88      0   11.74      0   8.741    
   (  1,  1, 15)  (  1,  1, 15)  (  1, 34, 12)  (  1, 34, 12)  (  1, 34, 12)
  0   5.559      0   4.049      0   2.494      0   1.216      0  0.7232    
   (  1, 35, 11)  (  1, 35, 11)  (  1, 35, 11)  (  1,  1, 15)  (  1,  1, 15)
  0  0.3736      0  0.1937      0  0.8295E-01  0  0.5385E-01  0  0.4419E-01
   (  1,  1, 15)  (  1, 32, 14)  (  1, 19, 15)  (  1, 31, 15)  (  1, 31, 15)
  0  0.2461E-01  0  0.1318E-01  0  0.6880E-02  0  0.3650E-02  0  0.2632E-02
   (  1, 31, 15)  (  1, 31, 15)  (  1, 31, 15)  (  1, 31, 15)  (  1, 31, 15)
  0  0.1439E-02  1   19.93      0   11.37      0   9.097      0   6.584    
   (  1, 31, 15)  (  1, 34, 12)  (  1, 34, 12)  (  1, 35, 11)  (  1, 35, 11)
  0   4.274      0   2.190      0   1.088      0  0.6266      0  0.3963    
   (  1, 35, 11)  (  1, 35, 11)  (  1, 35, 11)  (  1, 32, 14)  (  1, 32, 14)
  0  0.1578      0 -0.5827E-01  0 -0.5307E-01  0  0.3028E-01  0  0.1769E-01
   (  1, 32, 14)  (  1, 31, 14)  (  1, 31, 14)  (  1, 31, 15)  (  1, 31, 15)
  0  0.1099E-01  0  0.6285E-02  0  0.3429E-02  0  0.2010E-02  1  -14.34    
   (  1, 31, 15)  (  1, 31, 15)  (  1, 31, 15)  (  1, 31, 15)  (  1, 33, 12)
  0   12.37      0   10.74      0   7.785      0   4.424      0   2.291    
   (  1, 35, 11)  (  1, 35, 11)  (  1, 35, 11)  (  1, 35, 11)  (  1, 35, 11)
  0  -1.237      0  0.7855      0  0.5427      0  0.2202      0 -0.7877E-01
   (  1, 32, 13)  (  1, 32, 14)  (  1, 32, 14)  (  1, 32, 14)  (  1, 31, 14)
  0  0.4366E-01  0  0.3440E-01  0  0.2088E-01  0  0.1225E-01  0  0.6933E-02
   (  1, 37,  9)  (  1, 37,  9)  (  1, 31, 15)  (  1, 31, 15)  (  1, 31, 15)
  0  0.3689E-02  0  0.2196E-02  1  -24.27      0   21.62      0   18.52    
   (  1, 31, 15)  (  1, 31, 15)  (  1, 33, 12)  (  1, 35, 11)  (  1, 35, 11)
  0   13.31      0   7.364      0   3.957      0  -2.118      0   1.400    
   (  1, 35, 11)  (  1, 35, 11)  (  1, 35, 11)  (  1, 32, 13)  (  1, 32, 14)
  0  0.9480      0  0.3720      0 -0.1427      0  0.6711E-01  0  0.5760E-01
   (  1, 32, 14)  (  1, 32, 14)  (  1, 31, 14)  (  1, 37,  9)  (  1, 37,  9)
  0  0.3535E-01  0  0.1981E-01  0  0.1164E-01  0  0.6134E-02  0  0.3127E-02
   (  1, 37,  9)  (  1, 31, 15)  (  1, 31, 15)  (  1, 31, 15)  (  1, 31, 15)
  0  0.2072E-02  1  -60.51      0  -40.03      0  -27.77      0  -16.11    
   (  1, 31, 15)  (  1, 34, 11)  (  1, 35, 12)  (  1, 35, 12)  (  1, 34, 11)
  0  -11.11      0  -6.943      0  -3.759      0  -2.391      0  -1.434    
   (  1, 33, 15)  (  1, 33, 15)  (  1, 31, 15)  (  1, 31, 15)  (  1, 31, 15)
  0 -0.8072      0 -0.3613      0 -0.1857      0 -0.1572      0 -0.9122E-01
   (  1, 31, 15)  (  1, 31, 15)  (  1, 30, 15)  (  1, 30, 15)  (  1, 32, 15)
  0 -0.4785E-01  0 -0.2452E-01  0 -0.1556E-01  0 -0.1150E-01  0 -0.5585E-02
   (  1, 32, 15)  (  1, 30, 15)  (  1, 30, 15)  (  1, 30, 15)  (  1, 30, 15)
  0 -0.2798E-02  1  -19.12      0  -12.28      0  -9.538      0  -4.993    
   (  1, 30, 15)  (  1, 34, 11)  (  1, 34, 11)  (  1, 34, 11)  (  1, 34, 11)
  0  -3.874      0  -2.306      0  -1.194      0 -0.6915      0 -0.4084    
   (  1, 33, 15)  (  1, 33, 15)  (  1, 31, 15)  (  1, 31, 15)  (  1, 31, 15)
  0 -0.2364      0 -0.1178      0 -0.6930E-01  0 -0.5373E-01  0 -0.2896E-01
   (  1, 31, 15)  (  1, 31, 15)  (  1, 32, 15)  (  1, 32, 15)  (  1, 32, 15)
  0 -0.1513E-01  0 -0.7467E-02  0 -0.3951E-02  0 -0.2027E-02  1  -5.816    
   (  1, 32, 15)  (  1, 32, 15)  (  1, 30, 15)  (  1, 30, 15)  (  1, 34, 11)
  0  -3.904      0  -2.911      0  -1.582      0  -1.274      0 -0.7464    
   (  1, 34, 11)  (  1, 34, 11)  (  1, 33, 15)  (  1, 33, 15)  (  1, 33, 15)
  0 -0.3998      0 -0.2185      0 -0.1376      0 -0.7445E-01  0 -0.3625E-01
   (  1, 33, 15)  (  1, 31, 15)  (  1, 31, 15)  (  1, 31, 15)  (  1, 31, 15)
  0 -0.2333E-01  0 -0.1740E-01  0 -0.8748E-02  0 -0.4452E-02  0 -0.2242E-02
   (  1, 32, 15)  (  1, 32, 15)  (  1, 32, 15)  (  1, 32, 15)  (  1, 32, 15)
  0 -0.1181E-02  1  -1.842      0  -1.269      0 -0.8671      0 -0.5179    
   (  1, 32, 15)  (  1, 34, 11)  (  1, 34, 11)  (  1, 34, 11)  (  1, 33, 15)
  0 -0.3345      0 -0.2306      0 -0.1320      0 -0.6320E-01  0 -0.4136E-01
   (  1, 33, 15)  (  1, 33, 15)  (  1, 33, 15)  (  1, 31, 15)  (  1, 31, 15)
  0 -0.2157E-01  0 -0.9594E-02  0 -0.8134E-02  0 -0.5125E-02  0 -0.2671E-02
   (  1, 31, 15)  (  1, 32, 15)  (  1, 32, 15)  (  1, 32, 15)  (  1, 32, 15)
  0 -0.1305E-02  1 -0.5869      0 -0.4051      0 -0.2603      0 -0.1703    
   (  1, 32, 15)  (  1, 34, 11)  (  1, 34, 11)  (  1, 34, 11)  (  1, 33, 15)
  0 -0.1184      0 -0.7586E-01  0 -0.4315E-01  0 -0.2034E-01  0 -0.1208E-01
   (  1, 33, 15)  (  1, 33, 15)  (  1, 33, 15)  (  1, 33, 15)  (  1, 31, 15)
  0 -0.6453E-02  0 -0.2886E-02  0 -0.2351E-02  0 -0.1558E-02  0 -0.8163E-03
   (  1, 31, 15)  (  1, 32, 15)  (  1, 32, 15)  (  1, 32, 15)  (  1, 32, 15)
  1 -0.1826      0 -0.1263      0 -0.7906E-01  0 -0.5573E-01  0 -0.4376E-01
   (  1, 34, 11)  (  1, 34, 11)  (  1, 34, 11)  (  1, 33, 15)  (  1, 33, 15)
  0 -0.2449E-01  0 -0.1421E-01  0 -0.6938E-02  0 -0.3874E-02  0 -0.1976E-02
   (  1, 33, 15)  (  1, 33, 15)  (  1, 33, 15)  (  1, 33, 15)  (  1, 32, 15)
  0 -0.9828E-03  1 -0.5550E-01  0 -0.3839E-01  0 -0.2411E-01  0 -0.1813E-01
   (  1, 32, 15)  (  1, 34, 11)  (  1, 34, 11)  (  1, 34, 11)  (  1, 33, 15)
  0 -0.1445E-01  0 -0.7928E-02  0 -0.4721E-02  0 -0.2331E-02  0 -0.1238E-02
   (  1, 33, 15)  (  1, 33, 15)  (  1, 33, 15)  (  1, 33, 15)  (  1, 33, 15)
  0 -0.6226E-03  1 -0.1666E-01  0 -0.1127E-01  0 -0.7447E-02  0 -0.5911E-02
   (  1, 32, 15)  (  1, 34, 11)  (  1, 34, 11)  (  1, 33, 15)  (  1, 33, 15)
  0 -0.4674E-02  0 -0.2619E-02  0 -0.1548E-02  0 -0.7583E-03  1 -0.5092E-02
   (  1, 33, 15)  (  1, 33, 15)  (  1, 33, 15)  (  1, 33, 15)  (  1, 34, 11)
  0 -0.3246E-02  0 -0.2552E-02  0 -0.2002E-02  0 -0.1526E-02  0 -0.8673E-03
   (  1, 34, 11)  (  1, 33, 15)  (  1, 33, 15)  (  1, 33, 15)  (  1, 33, 15)
  0 -0.4920E-03  1 -0.1584E-02  0 -0.9878E-03  1 -0.1076E-02
   (  1, 33, 15)  (  1, 34, 11)  (  1, 33, 15)  (  1, 34, 11)



 OUTPUT CONTROL FOR STRESS PERIOD    3   TIME STEP    1
    SAVE HEAD FOR ALL LAYERS
    SAVE BUDGET
 UBDSV2 SAVING "   CONSTANT HEAD" ON UNIT  53 AT TIME STEP  1, STRESS PERIOD   3
 UBDSV1 SAVING "FLOW RIGHT FACE " ON UNIT  53 AT TIME STEP  1, STRESS PERIOD   3
 UBDSV1 SAVING "FLOW FRONT FACE " ON UNIT  53 AT TIME STEP  1, STRESS PERIOD   3

 HEAD WILL BE SAVED ON UNIT   51 AT END OF TIME STEP    1, STRESS PERIOD    3
1
  VOLUMETRIC BUDGET FOR ENTIRE MODEL AT END OF TIME STEP    1, STRESS PERIOD   3
  ------------------------------------------------------------------------------

     CUMULATIVE VOLUMES      L**3       RATES FOR THIS TIME STEP      L**3/T
     ------------------                 ------------------------

           IN:                                      IN:
           ---                                      ---
             STORAGE =     2765475.0000               STORAGE =           0.0000
       CONSTANT HEAD =           0.0000         CONSTANT HEAD =           0.0000
               WELLS =           0.0000                 WELLS =           0.0000
       RIVER LEAKAGE =      962149.7500         RIVER LEAKAGE =         683.6514
            RECHARGE =     7144518.0000              RECHARGE =        3903.7500

            TOTAL IN =    10872143.0000              TOTAL IN =        4587.4014

          OUT:                                     OUT:
          ----                                     ----
             STORAGE =           0.0000               STORAGE =           0.0000
       CONSTANT HEAD =      653981.6250         CONSTANT HEAD =         280.8217
               WELLS =     4349877.0000                 WELLS =        1917.0000
       RIVER LEAKAGE =     5868390.0000         RIVER LEAKAGE =        2389.5732
            RECHARGE =           0.0000              RECHARGE =           0.0000

           TOTAL OUT =    10872249.0000             TOTAL OUT =        4587.3950

            IN - OUT =        -106.0000              IN - OUT =       6.3477E-03

 PERCENT DISCREPANCY =          -0.00     PERCENT DISCREPANCY =           0.00






         TIME SUMMARY AT END OF TIME STEP    1 IN STRESS PERIOD    3
                    SECONDS     MINUTES      HOURS       DAYS        YEARS
                    -----------------------------------------------------------
   TIME STEP LENGTH  86400.      1440.0      24.000      1.0000     2.73785E-03
 STRESS PERIOD TIME  86400.      1440.0      24.000      1.0000     2.73785E-03
         TOTAL TIME 1.57853E+08 2.63088E+06  43848.      1827.0      5.0021    
1

 Run end date and time (yyyy/mm/dd hh:mm:ss): 2018/02/04 10:29:13
 Elapsed run time:  0.033 Seconds

