                                  MODFLOW-2005     
      U.S. GEOLOGICAL SURVEY MODULAR FINITE-DIFFERENCE GROUND-WATER FLOW MODEL
                            VERSION 1.11.00 8/8/2013

 LIST FILE: supply2.lst
                         UNIT   10

 OPENING supply2.dis
 FILE TYPE:DIS   UNIT   11   STATUS:OLD    
 FORMAT:FORMATTED              ACCESS:SEQUENTIAL          

 OPENING supply2.ba6
 FILE TYPE:BAS6   UNIT   12   STATUS:OLD    
 FORMAT:FORMATTED              ACCESS:SEQUENTIAL          

 OPENING supply2.bc6
 FILE TYPE:BCF6   UNIT   13   STATUS:OLD    
 FORMAT:FORMATTED              ACCESS:SEQUENTIAL          

 OPENING supply2.rch
 FILE TYPE:RCH   UNIT   15   STATUS:OLD    
 FORMAT:FORMATTED              ACCESS:SEQUENTIAL          
#STR     16  supply2.str                                                                                                                                                                                                                                                                                    

 OPENING supply2.sfr
 FILE TYPE:SFR   UNIT   16   STATUS:OLD    
 FORMAT:FORMATTED              ACCESS:SEQUENTIAL          

 OPENING supply2.oc
 FILE TYPE:OC   UNIT   17   STATUS:OLD    
 FORMAT:FORMATTED              ACCESS:SEQUENTIAL          

 OPENING supply2.pcg
 FILE TYPE:PCG   UNIT   18   STATUS:OLD    
 FORMAT:FORMATTED              ACCESS:SEQUENTIAL          

 OPENING supply2.wel
 FILE TYPE:WEL   UNIT   20   STATUS:OLD    
 FORMAT:FORMATTED              ACCESS:SEQUENTIAL          
#GWM     19   supply2.gwm                                                                                                                                                                                                                                                                                   
#DATA    20   supply2.gwmwell                                                                                                                                                                                                                                                                               

 OPENING supply2.sfrout
 FILE TYPE:DATA   UNIT   81   STATUS:UNKNOWN
 FORMAT:FORMATTED              ACCESS:SEQUENTIAL          

 BAS -- BASIC PACKAGE, VERSION 7, 5/2/2005 INPUT READ FROM UNIT   12
 
 MODFLOW was compiled using mixed precision
 Precision of REAL variables:           6
 Precision of DOUBLE PRECISION variables:          15

 DISCRETIZATION INPUT DATA READ FROM UNIT   11
    1 LAYERS        25 ROWS        30 COLUMNS
   12 STRESS PERIOD(S) IN SIMULATION
 MODEL TIME UNIT IS DAYS
 MODEL LENGTH UNIT IS UNDEFINED
  Confining bed flag for each layer:
   0

                     DELR =   200.000    

                     DELC =   200.000    

 TOP ELEVATION OF LAYER 1 =  100.0000    

   MODEL LAYER BOTTOM EL. =   0.00000     FOR LAYER   1


 STRESS PERIOD     LENGTH       TIME STEPS     MULTIPLIER FOR DELT    SS FLAG
 ----------------------------------------------------------------------------
        1         92.00000          1                    1.500         TR
        2         91.00000          1                    1.500         TR
        3         91.00000          1                    1.500         TR
        4         91.00000          1                    1.500         TR
        5         92.00000          1                    1.500         TR
        6         91.00000          1                    1.500         TR
        7         91.00000          1                    1.500         TR
        8         91.00000          1                    1.500         TR
        9         92.00000          1                    1.500         TR
       10         91.00000          1                    1.500         TR
       11         91.00000          1                    1.500         TR
       12         91.00000          1                    1.500         TR

 TRANSIENT SIMULATION



 
 #MODOFC transient water supply sample problem                                   
 #                                                                               
 THE FREE FORMAT OPTION HAS BEEN SELECTED



                     BOUNDARY ARRAY FOR LAYER   1
 READING ON UNIT   12 WITH FORMAT: (20I4)              

 AQUIFER HEAD WILL BE SET TO   0.0000     AT ALL NO-FLOW NODES (IBOUND=0).



                       INITIAL HEAD FOR LAYER   1
 READING ON UNIT   12 WITH FORMAT: (10F13.0)           

 OUTPUT CONTROL IS SPECIFIED EVERY TIME STEP
 HEAD PRINT FORMAT CODE IS  19    DRAWDOWN PRINT FORMAT CODE IS   0
 HEADS WILL BE SAVED ON UNIT   10    DRAWDOWNS WILL BE SAVED ON UNIT   10

 BCF -- BLOCK-CENTERED FLOW PACKAGE, VERSION 7, 5/2/2005
         INPUT READ FROM UNIT 13
 TRANSIENT SIMULATION
 HEAD AT CELLS THAT CONVERT TO DRY=   0.0000    
 WETTING CAPABILITY IS NOT ACTIVE
      LAYER  LAYER-TYPE CODE     INTERBLOCK T
      --------------------------------------------
         1            0          0 -- HARMONIC    

 COLUMN TO ROW ANISOTROPY =  1.000000    

     PRIMARY STORAGE COEF =  5.000000E-02 FOR LAYER   1

     TRANSMIS. ALONG ROWS =   5000.00     FOR LAYER   1

 WEL -- WELL PACKAGE, VERSION 7, 5/2/2005 INPUT READ FROM UNIT   20
 # Well file for MODFLOW, generated by Flopy.
 No named parameters
 MAXIMUM OF      4 ACTIVE WELLS AT ONE TIME


     0 Well parameters

 RCH -- RECHARGE PACKAGE, VERSION 7, 5/2/2005 INPUT READ FROM UNIT   15
 No named parameters
 OPTION 1 -- RECHARGE TO TOP LAYER


     0 Recharge parameters

 SFR7 -- STREAMFLOW ROUTING PACKAGE, VERSION 1.0.7, 2013-01-15
         INPUT READ FROM UNIT  16
 #SUPPLY2 Sample Problem, SFR file
 #March 2009
 No named parameters
 Segment information will not be 
 read by reach
 No named parameters
 No specifed inflow files


 NUMBER OF STREAM REACHES IS   40

 NUMBER OF STREAM SEGMENTS IS    3

 NUMBER OF STREAM PARAMETERS IS    0

 NUMBER OF STREAM SEGMENTS DEFINED USING PARAMETERS IS              0

 MAXIMUM ERROR FOR STREAM LEAKAGE RATES IS  1.00E-04

 CONSTANT FOR MANNINGS EQUATION IS  1.2839E+05



 STREAM OUTPUT WILL BE WRITTEN TO FILE ON UNIT   81


   STREAM NETWORK DESCRIPTION: 

   LAYER    ROW    COL   SEGMENT   REACH     LENGTH
                          NUMBER   NUMBER    IN CELL        
   --------------------------------------------------
      1     13      1       1        1    2.0000E+02
      1     13      2       1        2    2.0000E+02
      1     14      3       1        3    2.0000E+02
      1     15      4       1        4    2.0000E+02
      1     16      5       1        5    2.0000E+02
      1     16      6       1        6    2.0000E+02
      1     16      7       1        7    2.0000E+02
      1     16      8       1        8    2.0000E+02
      1     16      9       1        9    2.0000E+02
      1     16     10       1       10    2.0000E+02
      1     16     11       1       11    2.0000E+02
      1     16     12       1       12    2.0000E+02
      1     15     13       1       13    2.0000E+02
      1     14     14       1       14    2.0000E+02
      1     13     15       1       15    2.0000E+02
      1     12     16       1       16    2.0000E+02
      1     12     17       1       17    2.0000E+02
      1     12     18       1       18    2.0000E+02
      1     12     19       1       19    2.0000E+02
      1     13     20       1       20    2.0000E+02
      1     14     21       1       21    2.0000E+02
      1     14     22       1       22    2.0000E+02
      1      9     30       2        1    2.0000E+02
      1      9     29       2        2    2.0000E+02
      1      9     28       2        3    2.0000E+02
      1      9     27       2        4    2.0000E+02
      1     10     26       2        5    2.0000E+02
      1     11     25       2        6    2.0000E+02
      1     12     24       2        7    2.0000E+02
      1     13     23       2        8    2.0000E+02
      1     14     22       2        9    2.0000E+02
      1     14     22       3        1    2.0000E+02
      1     15     23       3        2    2.0000E+02
      1     15     24       3        3    2.0000E+02
      1     15     25       3        4    2.0000E+02
      1     15     26       3        5    2.0000E+02
      1     16     27       3        6    2.0000E+02
      1     17     28       3        7    2.0000E+02
      1     18     29       3        8    2.0000E+02
      1     18     30       3        9    2.0000E+02




 PCG -- CONJUGATE-GRADIENT SOLUTION PACKAGE, VERSION 7, 5/2/2005
 MAXIMUM OF    500 CALLS OF SOLUTION ROUTINE
 MAXIMUM OF      5 INTERNAL ITERATIONS PER CALL TO SOLUTION ROUTINE
 MATRIX PRECONDITIONING TYPE :    1



                                    SOLUTION BY THE CONJUGATE-GRADIENT METHOD
                                   -------------------------------------------
                    MAXIMUM NUMBER OF CALLS TO PCG ROUTINE =      500
                        MAXIMUM ITERATIONS PER CALL TO PCG =        5
                               MATRIX PRECONDITIONING TYPE =        1
        RELAXATION FACTOR (ONLY USED WITH PRECOND. TYPE 1) =    0.10000E+01
 PARAMETER OF POLYNOMIAL PRECOND. = 2 (2) OR IS CALCULATED :        0
                         HEAD CHANGE CRITERION FOR CLOSURE =    0.10000E-04
                     RESIDUAL CHANGE CRITERION FOR CLOSURE =    0.10000E+01
            PCG HEAD AND RESIDUAL CHANGE PRINTOUT INTERVAL =        1
     PRINTING FROM SOLVER IS LIMITED(1) OR SUPPRESSED (>1) =        1
                            STEADY-STATE DAMPING PARAMETER =    0.10000E+01
                               TRANSIENT DAMPING PARAMETER =    0.10000E+01
1
                            STRESS PERIOD NO.    1, LENGTH =   92.00000    
                            -----------------------------------------------

                              NUMBER OF TIME STEPS =     1

                               MULTIPLIER FOR DELT =     1.500

                            INITIAL TIME STEP SIZE =   92.00000    

 WELL NO.  LAYER   ROW   COL   STRESS RATE         
 --------------------------------------------------
      1      1     12     11       0.000    
      2      1     16     17     -0.5000E+05
      3      1     11     22       0.000    
      4      1     14     25       0.000    

      4 WELLS

                 RECHARGE =  5.000000E-04



 CLASSIFICATION & COUNT OF STREAM SEGMENTS BASED ON SOURCE OF INFLOW:

                HEADWATER     DIVERSION     RECEIVES TRIBUTARY FLOW
                ---------     ---------     -----------------------
                     2              0               1



                    INPUT DATA FOR EACH STREAM SEGMENT
 ---------------------------------------------------------------------------------------------

 SEGMENT    SEG.     INFLOW   OVERLAND   STREAM    STREAM   ICALC  OUTFLOW  DIVERSION PRIORITY
    NO.    LENGTH     RATE     RUNOFF      ET       PPT.    METH.  TO SEG.  FROM SEG.    NO.

      1  4.400E+03 1.000E+05 0.000E+00 0.000E+00 0.000E+00    1        3        0        0
      2  1.800E+03 5.000E+04 0.000E+00 0.000E+00 0.000E+00    1        3        0        0
      3  1.800E+03 0.000E+00 0.000E+00 0.000E+00 0.000E+00    1        0        0        0


         STREAMBED PROPERTIES AND STREAM DIMENSIONS

 SEGMENT     BED HYD. COND.      BED THICKNESS     ELEV.-TOP OF BED     WIDTH OF STREAM     DEPTH OF STREAM    STREAM ROUGHNESS
    No.     UPPER     LOWER     UPPER     LOWER     UPPER     LOWER     UPPER     LOWER     UPPER     LOWER   CHANNEL      BANK

     1  5.000E+00 5.000E+00 1.000E+00 1.000E+00 4.850E+01 3.800E+01 2.000E+01 2.000E+01                     5.000E-02
     2  5.000E+00 5.000E+00 1.000E+00 1.000E+00 4.025E+01 3.800E+01 2.000E+01 2.000E+01                     5.000E-02
     3  5.000E+00 5.000E+00 1.000E+00 1.000E+00 3.800E+01 3.000E+01 2.000E+01 2.000E+01                     5.000E-02



 
 SOLVING FOR HEAD 


     7 CALLS TO PCG ROUTINE FOR TIME STEP   1 IN STRESS PERIOD    1
    28 TOTAL ITERATIONS

 HEAD/DRAWDOWN PRINTOUT FLAG = 1     TOTAL BUDGET PRINTOUT FLAG = 1
 CELL-BY-CELL FLOW TERM FLAG = 1

 OUTPUT FLAGS FOR ALL LAYERS ARE THE SAME:
   HEAD    DRAWDOWN  HEAD  DRAWDOWN
 PRINTOUT  PRINTOUT  SAVE    SAVE
 ----------------------------------
     0         0       0       0



 STREAM LISTING     PERIOD      1   STEP        1

 LAYER ROW COL. STREAM  RCH.  FLOW INTO     FLOW TO   FLOW OUT OF   OVRLND.     DIRECT     STREAM       STREAM     STREAM     STREAM   STREAMBED  STREAMBED
                SEG.NO.  NO.  STRM. RCH.    AQUIFER    STRM. RCH.    RUNOFF     PRECIP       ET          HEAD       DEPTH      WIDTH   CONDCTNC.   GRADIENT

   1   13    1     1     1    1.0000E+05 -3.1664E+04   1.3166E+05  0.000E+00  0.000E+00  0.000E+00  4.84193E+01  1.580E-01  2.000E+01  2.000E+04 -1.583E+00
   1   13    2     1     2    1.3166E+05 -4.2124E+04   1.7379E+05  0.000E+00  0.000E+00  0.000E+00  4.79706E+01  1.865E-01  2.000E+01  2.000E+04 -2.106E+00
   1   14    3     1     3    1.7379E+05 -3.7649E+04   2.1144E+05  0.000E+00  0.000E+00  0.000E+00  4.75212E+01  2.144E-01  2.000E+01  2.000E+04 -1.882E+00
   1   15    4     1     4    2.1144E+05 -3.6685E+04   2.4812E+05  0.000E+00  0.000E+00  0.000E+00  4.70678E+01  2.383E-01  2.000E+01  2.000E+04 -1.834E+00
   1   16    5     1     5    2.4812E+05 -3.7590E+04   2.8571E+05  0.000E+00  0.000E+00  0.000E+00  4.66130E+01  2.607E-01  2.000E+01  2.000E+04 -1.879E+00
   1   16    6     1     6    2.8571E+05 -3.2846E+04   3.1856E+05  0.000E+00  0.000E+00  0.000E+00  4.61558E+01  2.808E-01  2.000E+01  2.000E+04 -1.642E+00
   1   16    7     1     7    3.1856E+05 -3.2618E+04   3.5117E+05  0.000E+00  0.000E+00  0.000E+00  4.56964E+01  2.987E-01  2.000E+01  2.000E+04 -1.631E+00
   1   16    8     1     8    3.5117E+05 -3.2762E+04   3.8394E+05  0.000E+00  0.000E+00  0.000E+00  4.52363E+01  3.159E-01  2.000E+01  2.000E+04 -1.638E+00
   1   16    9     1     9    3.8394E+05 -3.2745E+04   4.1668E+05  0.000E+00  0.000E+00  0.000E+00  4.47757E+01  3.325E-01  2.000E+01  2.000E+04 -1.637E+00
   1   16   10     1    10    4.1668E+05 -3.2579E+04   4.4926E+05  0.000E+00  0.000E+00  0.000E+00  4.43144E+01  3.485E-01  2.000E+01  2.000E+04 -1.629E+00
   1   16   11     1    11    4.4926E+05 -3.2817E+04   4.8208E+05  0.000E+00  0.000E+00  0.000E+00  4.38527E+01  3.641E-01  2.000E+01  2.000E+04 -1.641E+00
   1   16   12     1    12    4.8208E+05 -3.7605E+04   5.1968E+05  0.000E+00  0.000E+00  0.000E+00  4.33917E+01  3.803E-01  2.000E+01  2.000E+04 -1.880E+00
   1   15   13     1    13    5.1968E+05 -3.6004E+04   5.5569E+05  0.000E+00  0.000E+00  0.000E+00  4.29310E+01  3.969E-01  2.000E+01  2.000E+04 -1.800E+00
   1   14   14     1    14    5.5569E+05 -3.6128E+04   5.9182E+05  0.000E+00  0.000E+00  0.000E+00  4.24694E+01  4.126E-01  2.000E+01  2.000E+04 -1.806E+00
   1   13   15     1    15    5.9182E+05 -3.8601E+04   6.3042E+05  0.000E+00  0.000E+00  0.000E+00  4.20081E+01  4.285E-01  2.000E+01  2.000E+04 -1.930E+00
   1   12   16     1    16    6.3042E+05 -4.5881E+04   6.7630E+05  0.000E+00  0.000E+00  0.000E+00  4.15484E+01  4.461E-01  2.000E+01  2.000E+04 -2.294E+00
   1   12   17     1    17    6.7630E+05 -3.5335E+04   7.1163E+05  0.000E+00  0.000E+00  0.000E+00  4.10875E+01  4.625E-01  2.000E+01  2.000E+04 -1.767E+00
   1   12   18     1    18    7.1163E+05 -3.3781E+04   7.4541E+05  0.000E+00  0.000E+00  0.000E+00  4.06239E+01  4.762E-01  2.000E+01  2.000E+04 -1.689E+00
   1   12   19     1    19    7.4541E+05 -3.8711E+04   7.8413E+05  0.000E+00  0.000E+00  0.000E+00  4.01607E+01  4.903E-01  2.000E+01  2.000E+04 -1.936E+00
   1   13   20     1    20    7.8413E+05 -2.7893E+04   8.1202E+05  0.000E+00  0.000E+00  0.000E+00  3.96962E+01  5.030E-01  2.000E+01  2.000E+04 -1.395E+00
   1   14   21     1    21    8.1202E+05 -2.0267E+04   8.3229E+05  0.000E+00  0.000E+00  0.000E+00  3.92279E+01  5.120E-01  2.000E+01  2.000E+04 -1.013E+00
   1   14   22     1    22    8.3229E+05 -2.4723E+03   8.3476E+05  0.000E+00  0.000E+00  0.000E+00  3.87549E+01  5.163E-01  2.000E+01  2.000E+04 -1.236E-01
   1    9   30     2     1    5.0000E+04 -2.9658E+04   7.9658E+04  0.000E+00  0.000E+00  0.000E+00  4.02604E+01  1.354E-01  2.000E+01  2.000E+04 -1.483E+00
   1    9   29     2     2    7.9658E+04 -3.2097E+04   1.1176E+05  0.000E+00  0.000E+00  0.000E+00  4.00461E+01  1.711E-01  2.000E+01  2.000E+04 -1.605E+00
   1    9   28     2     3    1.1176E+05 -3.6418E+04   1.4817E+05  0.000E+00  0.000E+00  0.000E+00  3.98305E+01  2.055E-01  2.000E+01  2.000E+04 -1.821E+00
   1    9   27     2     4    1.4817E+05 -5.1044E+04   1.9922E+05  0.000E+00  0.000E+00  0.000E+00  3.96196E+01  2.446E-01  2.000E+01  2.000E+04 -2.552E+00
   1   10   26     2     5    1.9922E+05 -3.7437E+04   2.3665E+05  0.000E+00  0.000E+00  0.000E+00  3.94053E+01  2.803E-01  2.000E+01  2.000E+04 -1.872E+00
   1   11   25     2     6    2.3665E+05 -2.9016E+04   2.6567E+05  0.000E+00  0.000E+00  0.000E+00  3.91802E+01  3.052E-01  2.000E+01  2.000E+04 -1.451E+00
   1   12   24     2     7    2.6567E+05 -2.1995E+04   2.8767E+05  0.000E+00  0.000E+00  0.000E+00  3.89484E+01  3.234E-01  2.000E+01  2.000E+04 -1.100E+00
   1   13   23     2     8    2.8767E+05 -1.5799E+04   3.0346E+05  0.000E+00  0.000E+00  0.000E+00  3.87115E+01  3.365E-01  2.000E+01  2.000E+04 -7.899E-01
   1   14   22     2     9    3.0346E+05 -8.1782E+03   3.1164E+05  0.000E+00  0.000E+00  0.000E+00  3.84696E+01  3.446E-01  2.000E+01  2.000E+04 -4.089E-01
   1   14   22     3     1    1.1464E+06 -1.6042E+04   1.1624E+06  0.000E+00  0.000E+00  0.000E+00  3.80764E+01  5.209E-01  2.000E+01  2.000E+04 -8.021E-01
   1   15   23     3     2    1.1624E+06 -2.5353E+04   1.1878E+06  0.000E+00  0.000E+00  0.000E+00  3.71931E+01  5.264E-01  2.000E+01  2.000E+04 -1.268E+00
   1   15   24     3     3    1.1878E+06 -2.1747E+04   1.2095E+06  0.000E+00  0.000E+00  0.000E+00  3.63105E+01  5.327E-01  2.000E+01  2.000E+04 -1.087E+00
   1   15   25     3     4    1.2095E+06 -2.1742E+04   1.2313E+06  0.000E+00  0.000E+00  0.000E+00  3.54274E+01  5.385E-01  2.000E+01  2.000E+04 -1.087E+00
   1   15   26     3     5    1.2313E+06 -2.5311E+04   1.2566E+06  0.000E+00  0.000E+00  0.000E+00  3.45447E+01  5.447E-01  2.000E+01  2.000E+04 -1.266E+00
   1   16   27     3     6    1.2566E+06 -3.2957E+04   1.2896E+06  0.000E+00  0.000E+00  0.000E+00  3.36635E+01  5.523E-01  2.000E+01  2.000E+04 -1.648E+00
   1   17   28     3     7    1.2896E+06 -4.0000E+04   1.3296E+06  0.000E+00  0.000E+00  0.000E+00  3.27840E+01  5.618E-01  2.000E+01  2.000E+04 -2.000E+00
   1   18   29     3     8    1.3296E+06 -5.0498E+04   1.3801E+06  0.000E+00  0.000E+00  0.000E+00  3.19067E+01  5.734E-01  2.000E+01  2.000E+04 -2.525E+00
   1   18   30     3     9    1.3801E+06 -4.6588E+04   1.4266E+06  0.000E+00  0.000E+00  0.000E+00  3.10300E+01  5.856E-01  2.000E+01  2.000E+04 -2.329E+00



1
  VOLUMETRIC BUDGET FOR ENTIRE MODEL AT END OF TIME STEP    1, STRESS PERIOD   1
  ------------------------------------------------------------------------------

     CUMULATIVE VOLUMES      L**3       RATES FOR THIS TIME STEP      L**3/T
     ------------------                 ------------------------

           IN:                                      IN:
           ---                                      ---
             STORAGE =    19097038.0000               STORAGE =      207576.5000
       CONSTANT HEAD =   101683944.0000         CONSTANT HEAD =     1105260.2500
               WELLS =           0.0000                 WELLS =           0.0000
            RECHARGE =     1269600.0000              RECHARGE =       13800.0000
      STREAM LEAKAGE =           0.0000        STREAM LEAKAGE =           0.0000

            TOTAL IN =   122050584.0000              TOTAL IN =     1326636.7500

          OUT:                                     OUT:
          ----                                     ----
             STORAGE =           0.0000               STORAGE =           0.0000
       CONSTANT HEAD =           0.0000         CONSTANT HEAD =           0.0000
               WELLS =     4600000.0000                 WELLS =       50000.0000
            RECHARGE =           0.0000              RECHARGE =           0.0000
      STREAM LEAKAGE =   117450728.0000        STREAM LEAKAGE =     1276638.3750

           TOTAL OUT =   122050728.0000             TOTAL OUT =     1326638.3750

            IN - OUT =        -144.0000              IN - OUT =          -1.6250

 PERCENT DISCREPANCY =          -0.00     PERCENT DISCREPANCY =          -0.00






         TIME SUMMARY AT END OF TIME STEP    1 IN STRESS PERIOD    1
                    SECONDS     MINUTES      HOURS       DAYS        YEARS
                    -----------------------------------------------------------
   TIME STEP LENGTH 7.94880E+06 1.32480E+05  2208.0      92.000     0.25188    
 STRESS PERIOD TIME 7.94880E+06 1.32480E+05  2208.0      92.000     0.25188    
         TOTAL TIME 7.94880E+06 1.32480E+05  2208.0      92.000     0.25188    
1
1
                            STRESS PERIOD NO.    2, LENGTH =   91.00000    
                            -----------------------------------------------

                              NUMBER OF TIME STEPS =     1

                               MULTIPLIER FOR DELT =     1.500

                            INITIAL TIME STEP SIZE =   91.00000    

 WELL NO.  LAYER   ROW   COL   STRESS RATE         
 --------------------------------------------------
      1      1     12     11       0.000    
      2      1     16     17       0.000    
      3      1     11     22       0.000    
      4      1     14     25     -0.5000E+05

      4 WELLS

                 RECHARGE =  2.000000E-03

 REUSING STREAM SEGMENT DATA FROM LAST STRESS PERIOD
 
 SOLVING FOR HEAD 


     6 CALLS TO PCG ROUTINE FOR TIME STEP   1 IN STRESS PERIOD    2
    22 TOTAL ITERATIONS

 HEAD/DRAWDOWN PRINTOUT FLAG = 1     TOTAL BUDGET PRINTOUT FLAG = 1
 CELL-BY-CELL FLOW TERM FLAG = 1

 OUTPUT FLAGS FOR ALL LAYERS ARE THE SAME:
   HEAD    DRAWDOWN  HEAD  DRAWDOWN
 PRINTOUT  PRINTOUT  SAVE    SAVE
 ----------------------------------
     0         0       0       0



 STREAM LISTING     PERIOD      2   STEP        1

 LAYER ROW COL. STREAM  RCH.  FLOW INTO     FLOW TO   FLOW OUT OF   OVRLND.     DIRECT     STREAM       STREAM     STREAM     STREAM   STREAMBED  STREAMBED
                SEG.NO.  NO.  STRM. RCH.    AQUIFER    STRM. RCH.    RUNOFF     PRECIP       ET          HEAD       DEPTH      WIDTH   CONDCTNC.   GRADIENT

   1   13    1     1     1    1.0000E+05 -2.8556E+04   1.2856E+05  0.000E+00  0.000E+00  0.000E+00  4.84181E+01  1.567E-01  2.000E+01  2.000E+04 -1.428E+00
   1   13    2     1     2    1.2856E+05 -3.8453E+04   1.6701E+05  0.000E+00  0.000E+00  0.000E+00  4.79669E+01  1.829E-01  2.000E+01  2.000E+04 -1.923E+00
   1   14    3     1     3    1.6701E+05 -3.3890E+04   2.0090E+05  0.000E+00  0.000E+00  0.000E+00  4.75153E+01  2.085E-01  2.000E+01  2.000E+04 -1.695E+00
   1   15    4     1     4    2.0090E+05 -3.3080E+04   2.3398E+05  0.000E+00  0.000E+00  0.000E+00  4.70601E+01  2.305E-01  2.000E+01  2.000E+04 -1.654E+00
   1   16    5     1     5    2.3398E+05 -3.4505E+04   2.6849E+05  0.000E+00  0.000E+00  0.000E+00  4.66037E+01  2.514E-01  2.000E+01  2.000E+04 -1.725E+00
   1   16    6     1     6    2.6849E+05 -3.0157E+04   2.9864E+05  0.000E+00  0.000E+00  0.000E+00  4.61453E+01  2.703E-01  2.000E+01  2.000E+04 -1.508E+00
   1   16    7     1     7    2.9864E+05 -2.9984E+04   3.2863E+05  0.000E+00  0.000E+00  0.000E+00  4.56849E+01  2.872E-01  2.000E+01  2.000E+04 -1.499E+00
   1   16    8     1     8    3.2863E+05 -3.0179E+04   3.5881E+05  0.000E+00  0.000E+00  0.000E+00  4.52239E+01  3.034E-01  2.000E+01  2.000E+04 -1.509E+00
   1   16    9     1     9    3.5881E+05 -3.0269E+04   3.8907E+05  0.000E+00  0.000E+00  0.000E+00  4.47623E+01  3.192E-01  2.000E+01  2.000E+04 -1.513E+00
   1   16   10     1    10    3.8907E+05 -3.0303E+04   4.1938E+05  0.000E+00  0.000E+00  0.000E+00  4.43003E+01  3.344E-01  2.000E+01  2.000E+04 -1.515E+00
   1   16   11     1    11    4.1938E+05 -3.0920E+04   4.5030E+05  0.000E+00  0.000E+00  0.000E+00  4.38380E+01  3.494E-01  2.000E+01  2.000E+04 -1.546E+00
   1   16   12     1    12    4.5030E+05 -3.6528E+04   4.8683E+05  0.000E+00  0.000E+00  0.000E+00  4.33768E+01  3.654E-01  2.000E+01  2.000E+04 -1.826E+00
   1   15   13     1    13    4.8683E+05 -3.5350E+04   5.2218E+05  0.000E+00  0.000E+00  0.000E+00  4.29161E+01  3.820E-01  2.000E+01  2.000E+04 -1.768E+00
   1   14   14     1    14    5.2218E+05 -3.5966E+04   5.5814E+05  0.000E+00  0.000E+00  0.000E+00  4.24548E+01  3.980E-01  2.000E+01  2.000E+04 -1.798E+00
   1   13   15     1    15    5.5814E+05 -3.8195E+04   5.9634E+05  0.000E+00  0.000E+00  0.000E+00  4.19937E+01  4.141E-01  2.000E+01  2.000E+04 -1.910E+00
   1   12   16     1    16    5.9634E+05 -4.4244E+04   6.4058E+05  0.000E+00  0.000E+00  0.000E+00  4.15339E+01  4.316E-01  2.000E+01  2.000E+04 -2.212E+00
   1   12   17     1    17    6.4058E+05 -3.4588E+04   6.7517E+05  0.000E+00  0.000E+00  0.000E+00  4.10729E+01  4.479E-01  2.000E+01  2.000E+04 -1.729E+00
   1   12   18     1    18    6.7517E+05 -3.2908E+04   7.0808E+05  0.000E+00  0.000E+00  0.000E+00  4.06093E+01  4.616E-01  2.000E+01  2.000E+04 -1.645E+00
   1   12   19     1    19    7.0808E+05 -3.6968E+04   7.4505E+05  0.000E+00  0.000E+00  0.000E+00  4.01459E+01  4.754E-01  2.000E+01  2.000E+04 -1.848E+00
   1   13   20     1    20    7.4505E+05 -2.7085E+04   7.7213E+05  0.000E+00  0.000E+00  0.000E+00  3.96811E+01  4.879E-01  2.000E+01  2.000E+04 -1.354E+00
   1   14   21     1    21    7.7213E+05 -1.9795E+04   7.9192E+05  0.000E+00  0.000E+00  0.000E+00  3.92128E+01  4.969E-01  2.000E+01  2.000E+04 -9.897E-01
   1   14   22     1    22    7.9192E+05 -1.0884E+03   7.9301E+05  0.000E+00  0.000E+00  0.000E+00  3.87395E+01  5.009E-01  2.000E+01  2.000E+04 -5.442E-02
   1    9   30     2     1    5.0000E+04 -2.6513E+04   7.6513E+04  0.000E+00  0.000E+00  0.000E+00  4.02584E+01  1.334E-01  2.000E+01  2.000E+04 -1.326E+00
   1    9   29     2     2    7.6513E+04 -2.8957E+04   1.0547E+05  0.000E+00  0.000E+00  0.000E+00  4.00409E+01  1.659E-01  2.000E+01  2.000E+04 -1.448E+00
   1    9   28     2     3    1.0547E+05 -3.3226E+04   1.3870E+05  0.000E+00  0.000E+00  0.000E+00  3.98230E+01  1.980E-01  2.000E+01  2.000E+04 -1.661E+00
   1    9   27     2     4    1.3870E+05 -4.7413E+04   1.8611E+05  0.000E+00  0.000E+00  0.000E+00  3.96099E+01  2.349E-01  2.000E+01  2.000E+04 -2.371E+00
   1   10   26     2     5    1.8611E+05 -3.2605E+04   2.1871E+05  0.000E+00  0.000E+00  0.000E+00  3.93931E+01  2.681E-01  2.000E+01  2.000E+04 -1.630E+00
   1   11   25     2     6    2.1871E+05 -2.2749E+04   2.4146E+05  0.000E+00  0.000E+00  0.000E+00  3.91645E+01  2.895E-01  2.000E+01  2.000E+04 -1.137E+00
   1   12   24     2     7    2.4146E+05 -1.4663E+04   2.5613E+05  0.000E+00  0.000E+00  0.000E+00  3.89284E+01  3.034E-01  2.000E+01  2.000E+04 -7.331E-01
   1   13   23     2     8    2.5613E+05 -9.9624E+03   2.6609E+05  0.000E+00  0.000E+00  0.000E+00  3.86874E+01  3.124E-01  2.000E+01  2.000E+04 -4.981E-01
   1   14   22     2     9    2.6609E+05 -7.0099E+03   2.7310E+05  0.000E+00  0.000E+00  0.000E+00  3.84434E+01  3.184E-01  2.000E+01  2.000E+04 -3.505E-01
   1   14   22     3     1    1.0661E+06 -1.4794E+04   1.0809E+06  0.000E+00  0.000E+00  0.000E+00  3.80542E+01  4.986E-01  2.000E+01  2.000E+04 -7.397E-01
   1   15   23     3     2    1.0809E+06 -2.1924E+04   1.1028E+06  0.000E+00  0.000E+00  0.000E+00  3.71704E+01  5.037E-01  2.000E+01  2.000E+04 -1.096E+00
   1   15   24     3     3    1.1028E+06 -1.4568E+04   1.1174E+06  0.000E+00  0.000E+00  0.000E+00  3.62865E+01  5.088E-01  2.000E+01  2.000E+04 -7.284E-01
   1   15   25     3     4    1.1174E+06 -8.1151E+03   1.1255E+06  0.000E+00  0.000E+00  0.000E+00  3.54008E+01  5.119E-01  2.000E+01  2.000E+04 -4.058E-01
   1   15   26     3     5    1.1255E+06 -1.5883E+04   1.1414E+06  0.000E+00  0.000E+00  0.000E+00  3.45152E+01  5.152E-01  2.000E+01  2.000E+04 -7.942E-01
   1   16   27     3     6    1.1414E+06 -2.7643E+04   1.1690E+06  0.000E+00  0.000E+00  0.000E+00  3.36322E+01  5.211E-01  2.000E+01  2.000E+04 -1.382E+00
   1   17   28     3     7    1.1690E+06 -3.5894E+04   1.2049E+06  0.000E+00  0.000E+00  0.000E+00  3.27518E+01  5.296E-01  2.000E+01  2.000E+04 -1.795E+00
   1   18   29     3     8    1.2049E+06 -4.7378E+04   1.2523E+06  0.000E+00  0.000E+00  0.000E+00  3.18740E+01  5.407E-01  2.000E+01  2.000E+04 -2.369E+00
   1   18   30     3     9    1.2523E+06 -4.3771E+04   1.2961E+06  0.000E+00  0.000E+00  0.000E+00  3.09971E+01  5.526E-01  2.000E+01  2.000E+04 -2.189E+00



1
  VOLUMETRIC BUDGET FOR ENTIRE MODEL AT END OF TIME STEP    1, STRESS PERIOD   2
  ------------------------------------------------------------------------------

     CUMULATIVE VOLUMES      L**3       RATES FOR THIS TIME STEP      L**3/T
     ------------------                 ------------------------

           IN:                                      IN:
           ---                                      ---
             STORAGE =    19671724.0000               STORAGE =        6315.2368
       CONSTANT HEAD =   205003888.0000         CONSTANT HEAD =     1135384.0000
               WELLS =           0.0000                 WELLS =           0.0000
            RECHARGE =     6292800.0000              RECHARGE =       55200.0000
      STREAM LEAKAGE =           0.0000        STREAM LEAKAGE =           0.0000

            TOTAL IN =   230968416.0000              TOTAL IN =     1196899.2500

          OUT:                                     OUT:
          ----                                     ----
             STORAGE =       74296.6250               STORAGE =         816.4464
       CONSTANT HEAD =           0.0000         CONSTANT HEAD =           0.0000
               WELLS =     9150000.0000                 WELLS =       50000.0000
            RECHARGE =           0.0000              RECHARGE =           0.0000
      STREAM LEAKAGE =   221744224.0000        STREAM LEAKAGE =     1146082.2500

           TOTAL OUT =   230968528.0000             TOTAL OUT =     1196898.7500

            IN - OUT =        -112.0000              IN - OUT =           0.5000

 PERCENT DISCREPANCY =          -0.00     PERCENT DISCREPANCY =           0.00






         TIME SUMMARY AT END OF TIME STEP    1 IN STRESS PERIOD    2
                    SECONDS     MINUTES      HOURS       DAYS        YEARS
                    -----------------------------------------------------------
   TIME STEP LENGTH 7.86240E+06 1.31040E+05  2184.0      91.000     0.24914    
 STRESS PERIOD TIME 7.86240E+06 1.31040E+05  2184.0      91.000     0.24914    
         TOTAL TIME 1.58112E+07 2.63520E+05  4392.0      183.00     0.50103    
1
1
                            STRESS PERIOD NO.    3, LENGTH =   91.00000    
                            -----------------------------------------------

                              NUMBER OF TIME STEPS =     1

                               MULTIPLIER FOR DELT =     1.500

                            INITIAL TIME STEP SIZE =   91.00000    

 WELL NO.  LAYER   ROW   COL   STRESS RATE         
 --------------------------------------------------
      1      1     12     11       0.000    
      2      1     16     17     -0.3231E+05
      3      1     11     22       0.000    
      4      1     14     25       0.000    

      4 WELLS

                 RECHARGE =   0.00000    

 REUSING STREAM SEGMENT DATA FROM LAST STRESS PERIOD
 
 SOLVING FOR HEAD 


     5 CALLS TO PCG ROUTINE FOR TIME STEP   1 IN STRESS PERIOD    3
    19 TOTAL ITERATIONS

 HEAD/DRAWDOWN PRINTOUT FLAG = 1     TOTAL BUDGET PRINTOUT FLAG = 1
 CELL-BY-CELL FLOW TERM FLAG = 1

 OUTPUT FLAGS FOR ALL LAYERS ARE THE SAME:
   HEAD    DRAWDOWN  HEAD  DRAWDOWN
 PRINTOUT  PRINTOUT  SAVE    SAVE
 ----------------------------------
     0         0       0       0



 STREAM LISTING     PERIOD      3   STEP        1

 LAYER ROW COL. STREAM  RCH.  FLOW INTO     FLOW TO   FLOW OUT OF   OVRLND.     DIRECT     STREAM       STREAM     STREAM     STREAM   STREAMBED  STREAMBED
                SEG.NO.  NO.  STRM. RCH.    AQUIFER    STRM. RCH.    RUNOFF     PRECIP       ET          HEAD       DEPTH      WIDTH   CONDCTNC.   GRADIENT

   1   13    1     1     1    1.0000E+05 -2.7508E+04   1.2751E+05  0.000E+00  0.000E+00  0.000E+00  4.84176E+01  1.563E-01  2.000E+01  2.000E+04 -1.375E+00
   1   13    2     1     2    1.2751E+05 -3.7191E+04   1.6470E+05  0.000E+00  0.000E+00  0.000E+00  4.79657E+01  1.816E-01  2.000E+01  2.000E+04 -1.860E+00
   1   14    3     1     3    1.6470E+05 -3.2663E+04   1.9736E+05  0.000E+00  0.000E+00  0.000E+00  4.75133E+01  2.065E-01  2.000E+01  2.000E+04 -1.633E+00
   1   15    4     1     4    1.9736E+05 -3.1900E+04   2.2926E+05  0.000E+00  0.000E+00  0.000E+00  4.70574E+01  2.279E-01  2.000E+01  2.000E+04 -1.595E+00
   1   16    5     1     5    2.2926E+05 -3.3431E+04   2.6269E+05  0.000E+00  0.000E+00  0.000E+00  4.66005E+01  2.482E-01  2.000E+01  2.000E+04 -1.672E+00
   1   16    6     1     6    2.6269E+05 -2.9199E+04   2.9189E+05  0.000E+00  0.000E+00  0.000E+00  4.61417E+01  2.667E-01  2.000E+01  2.000E+04 -1.460E+00
   1   16    7     1     7    2.9189E+05 -2.9004E+04   3.2090E+05  0.000E+00  0.000E+00  0.000E+00  4.56809E+01  2.832E-01  2.000E+01  2.000E+04 -1.450E+00
   1   16    8     1     8    3.2090E+05 -2.9151E+04   3.5005E+05  0.000E+00  0.000E+00  0.000E+00  4.52195E+01  2.990E-01  2.000E+01  2.000E+04 -1.458E+00
   1   16    9     1     9    3.5005E+05 -2.9168E+04   3.7921E+05  0.000E+00  0.000E+00  0.000E+00  4.47575E+01  3.144E-01  2.000E+01  2.000E+04 -1.458E+00
   1   16   10     1    10    3.7921E+05 -2.9080E+04   4.0829E+05  0.000E+00  0.000E+00  0.000E+00  4.42951E+01  3.292E-01  2.000E+01  2.000E+04 -1.454E+00
   1   16   11     1    11    4.0829E+05 -2.9425E+04   4.3772E+05  0.000E+00  0.000E+00  0.000E+00  4.38323E+01  3.437E-01  2.000E+01  2.000E+04 -1.471E+00
   1   16   12     1    12    4.3772E+05 -3.4091E+04   4.7181E+05  0.000E+00  0.000E+00  0.000E+00  4.33703E+01  3.589E-01  2.000E+01  2.000E+04 -1.705E+00
   1   15   13     1    13    4.7181E+05 -3.2174E+04   5.0398E+05  0.000E+00  0.000E+00  0.000E+00  4.29085E+01  3.744E-01  2.000E+01  2.000E+04 -1.609E+00
   1   14   14     1    14    5.0398E+05 -3.2306E+04   5.3629E+05  0.000E+00  0.000E+00  0.000E+00  4.24459E+01  3.890E-01  2.000E+01  2.000E+04 -1.615E+00
   1   13   15     1    15    5.3629E+05 -3.4720E+04   5.7101E+05  0.000E+00  0.000E+00  0.000E+00  4.19834E+01  4.039E-01  2.000E+01  2.000E+04 -1.736E+00
   1   12   16     1    16    5.7101E+05 -4.1774E+04   6.1278E+05  0.000E+00  0.000E+00  0.000E+00  4.15227E+01  4.204E-01  2.000E+01  2.000E+04 -2.089E+00
   1   12   17     1    17    6.1278E+05 -3.2188E+04   6.4497E+05  0.000E+00  0.000E+00  0.000E+00  4.10610E+01  4.360E-01  2.000E+01  2.000E+04 -1.609E+00
   1   12   18     1    18    6.4497E+05 -3.0705E+04   6.7568E+05  0.000E+00  0.000E+00  0.000E+00  4.05967E+01  4.489E-01  2.000E+01  2.000E+04 -1.535E+00
   1   12   19     1    19    6.7568E+05 -3.5080E+04   7.1076E+05  0.000E+00  0.000E+00  0.000E+00  4.01327E+01  4.622E-01  2.000E+01  2.000E+04 -1.754E+00
   1   13   20     1    20    7.1076E+05 -2.4747E+04   7.3550E+05  0.000E+00  0.000E+00  0.000E+00  3.96673E+01  4.741E-01  2.000E+01  2.000E+04 -1.237E+00
   1   14   21     1    21    7.3550E+05 -1.7728E+04   7.5323E+05  0.000E+00  0.000E+00  0.000E+00  3.91983E+01  4.824E-01  2.000E+01  2.000E+04 -8.864E-01
   1   14   22     1    22    7.5323E+05 -1.3381E+03   7.5457E+05  0.000E+00  0.000E+00  0.000E+00  3.87247E+01  4.861E-01  2.000E+01  2.000E+04 -6.690E-02
   1    9   30     2     1    5.0000E+04 -2.6324E+04   7.6324E+04  0.000E+00  0.000E+00  0.000E+00  4.02583E+01  1.333E-01  2.000E+01  2.000E+04 -1.316E+00
   1    9   29     2     2    7.6324E+04 -2.8792E+04   1.0512E+05  0.000E+00  0.000E+00  0.000E+00  4.00406E+01  1.657E-01  2.000E+01  2.000E+04 -1.440E+00
   1    9   28     2     3    1.0512E+05 -3.3074E+04   1.3819E+05  0.000E+00  0.000E+00  0.000E+00  3.98225E+01  1.975E-01  2.000E+01  2.000E+04 -1.654E+00
   1    9   27     2     4    1.3819E+05 -4.7152E+04   1.8534E+05  0.000E+00  0.000E+00  0.000E+00  3.96094E+01  2.344E-01  2.000E+01  2.000E+04 -2.358E+00
   1   10   26     2     5    1.8534E+05 -3.3094E+04   2.1844E+05  0.000E+00  0.000E+00  0.000E+00  3.93927E+01  2.677E-01  2.000E+01  2.000E+04 -1.655E+00
   1   11   25     2     6    2.1844E+05 -2.4730E+04   2.4317E+05  0.000E+00  0.000E+00  0.000E+00  3.91651E+01  2.901E-01  2.000E+01  2.000E+04 -1.237E+00
   1   12   24     2     7    2.4317E+05 -1.8147E+04   2.6131E+05  0.000E+00  0.000E+00  0.000E+00  3.89310E+01  3.060E-01  2.000E+01  2.000E+04 -9.073E-01
   1   13   23     2     8    2.6131E+05 -1.2753E+04   2.7407E+05  0.000E+00  0.000E+00  0.000E+00  3.86921E+01  3.171E-01  2.000E+01  2.000E+04 -6.376E-01
   1   14   22     2     9    2.7407E+05 -6.8528E+03   2.8092E+05  0.000E+00  0.000E+00  0.000E+00  3.84490E+01  3.240E-01  2.000E+01  2.000E+04 -3.426E-01
   1   14   22     3     1    1.0355E+06 -1.4920E+04   1.0504E+06  0.000E+00  0.000E+00  0.000E+00  3.80456E+01  4.901E-01  2.000E+01  2.000E+04 -7.460E-01
   1   15   23     3     2    1.0504E+06 -2.2592E+04   1.0730E+06  0.000E+00  0.000E+00  0.000E+00  3.71620E+01  4.953E-01  2.000E+01  2.000E+04 -1.130E+00
   1   15   24     3     3    1.0730E+06 -1.9122E+04   1.0921E+06  0.000E+00  0.000E+00  0.000E+00  3.62789E+01  5.012E-01  2.000E+01  2.000E+04 -9.561E-01
   1   15   25     3     4    1.0921E+06 -1.8870E+04   1.1110E+06  0.000E+00  0.000E+00  0.000E+00  3.53953E+01  5.064E-01  2.000E+01  2.000E+04 -9.435E-01
   1   15   26     3     5    1.1110E+06 -2.1680E+04   1.1327E+06  0.000E+00  0.000E+00  0.000E+00  3.45120E+01  5.120E-01  2.000E+01  2.000E+04 -1.084E+00
   1   16   27     3     6    1.1327E+06 -2.8787E+04   1.1615E+06  0.000E+00  0.000E+00  0.000E+00  3.36300E+01  5.189E-01  2.000E+01  2.000E+04 -1.439E+00
   1   17   28     3     7    1.1615E+06 -3.5878E+04   1.1973E+06  0.000E+00  0.000E+00  0.000E+00  3.27498E+01  5.276E-01  2.000E+01  2.000E+04 -1.794E+00
   1   18   29     3     8    1.1973E+06 -4.6930E+04   1.2443E+06  0.000E+00  0.000E+00  0.000E+00  3.18720E+01  5.386E-01  2.000E+01  2.000E+04 -2.346E+00
   1   18   30     3     9    1.2443E+06 -4.3450E+04   1.2877E+06  0.000E+00  0.000E+00  0.000E+00  3.09949E+01  5.505E-01  2.000E+01  2.000E+04 -2.172E+00



1
  VOLUMETRIC BUDGET FOR ENTIRE MODEL AT END OF TIME STEP    1, STRESS PERIOD   3
  ------------------------------------------------------------------------------

     CUMULATIVE VOLUMES      L**3       RATES FOR THIS TIME STEP      L**3/T
     ------------------                 ------------------------

           IN:                                      IN:
           ---                                      ---
             STORAGE =    20064448.0000               STORAGE =        4315.6519
       CONSTANT HEAD =   311121152.0000         CONSTANT HEAD =     1166124.0000
               WELLS =           0.0000                 WELLS =           0.0000
            RECHARGE =     6292800.0000              RECHARGE =           0.0000
      STREAM LEAKAGE =           0.0000        STREAM LEAKAGE =           0.0000

            TOTAL IN =   337478400.0000              TOTAL IN =     1170439.6250

          OUT:                                     OUT:
          ----                                     ----
             STORAGE =      111226.0000               STORAGE =         405.8173
       CONSTANT HEAD =           0.0000         CONSTANT HEAD =           0.0000
               WELLS =    12090637.0000                 WELLS =       32314.6953
            RECHARGE =           0.0000              RECHARGE =           0.0000
      STREAM LEAKAGE =   325276640.0000        STREAM LEAKAGE =     1137718.8750

           TOTAL OUT =   337478496.0000             TOTAL OUT =     1170439.5000

            IN - OUT =         -96.0000              IN - OUT =           0.1250

 PERCENT DISCREPANCY =          -0.00     PERCENT DISCREPANCY =           0.00






         TIME SUMMARY AT END OF TIME STEP    1 IN STRESS PERIOD    3
                    SECONDS     MINUTES      HOURS       DAYS        YEARS
                    -----------------------------------------------------------
   TIME STEP LENGTH 7.86240E+06 1.31040E+05  2184.0      91.000     0.24914    
 STRESS PERIOD TIME 7.86240E+06 1.31040E+05  2184.0      91.000     0.24914    
         TOTAL TIME 2.36736E+07 3.94560E+05  6576.0      274.00     0.75017    
1
1
                            STRESS PERIOD NO.    4, LENGTH =   91.00000    
                            -----------------------------------------------

                              NUMBER OF TIME STEPS =     1

                               MULTIPLIER FOR DELT =     1.500

                            INITIAL TIME STEP SIZE =   91.00000    

 WELL NO.  LAYER   ROW   COL   STRESS RATE         
 --------------------------------------------------
      1      1     12     11       0.000    
      2      1     16     17     -0.3088E+05
      3      1     11     22       0.000    
      4      1     14     25      -7477.    

      4 WELLS

                 RECHARGE =  1.000000E-03

 REUSING STREAM SEGMENT DATA FROM LAST STRESS PERIOD
 
 SOLVING FOR HEAD 


     5 CALLS TO PCG ROUTINE FOR TIME STEP   1 IN STRESS PERIOD    4
    17 TOTAL ITERATIONS

 HEAD/DRAWDOWN PRINTOUT FLAG = 1     TOTAL BUDGET PRINTOUT FLAG = 1
 CELL-BY-CELL FLOW TERM FLAG = 1

 OUTPUT FLAGS FOR ALL LAYERS ARE THE SAME:
   HEAD    DRAWDOWN  HEAD  DRAWDOWN
 PRINTOUT  PRINTOUT  SAVE    SAVE
 ----------------------------------
     0         0       0       0



 STREAM LISTING     PERIOD      4   STEP        1

 LAYER ROW COL. STREAM  RCH.  FLOW INTO     FLOW TO   FLOW OUT OF   OVRLND.     DIRECT     STREAM       STREAM     STREAM     STREAM   STREAMBED  STREAMBED
                SEG.NO.  NO.  STRM. RCH.    AQUIFER    STRM. RCH.    RUNOFF     PRECIP       ET          HEAD       DEPTH      WIDTH   CONDCTNC.   GRADIENT

   1   13    1     1     1    1.0000E+05 -2.7886E+04   1.2789E+05  0.000E+00  0.000E+00  0.000E+00  4.84178E+01  1.564E-01  2.000E+01  2.000E+04 -1.394E+00
   1   13    2     1     2    1.2789E+05 -3.7639E+04   1.6553E+05  0.000E+00  0.000E+00  0.000E+00  4.79661E+01  1.821E-01  2.000E+01  2.000E+04 -1.882E+00
   1   14    3     1     3    1.6553E+05 -3.3108E+04   1.9863E+05  0.000E+00  0.000E+00  0.000E+00  4.75141E+01  2.072E-01  2.000E+01  2.000E+04 -1.655E+00
   1   15    4     1     4    1.9863E+05 -3.2331E+04   2.3097E+05  0.000E+00  0.000E+00  0.000E+00  4.70584E+01  2.288E-01  2.000E+01  2.000E+04 -1.617E+00
   1   16    5     1     5    2.3097E+05 -3.3823E+04   2.6479E+05  0.000E+00  0.000E+00  0.000E+00  4.66017E+01  2.494E-01  2.000E+01  2.000E+04 -1.691E+00
   1   16    6     1     6    2.6479E+05 -2.9539E+04   2.9433E+05  0.000E+00  0.000E+00  0.000E+00  4.61430E+01  2.680E-01  2.000E+01  2.000E+04 -1.477E+00
   1   16    7     1     7    2.9433E+05 -2.9339E+04   3.2367E+05  0.000E+00  0.000E+00  0.000E+00  4.56824E+01  2.846E-01  2.000E+01  2.000E+04 -1.467E+00
   1   16    8     1     8    3.2367E+05 -2.9485E+04   3.5315E+05  0.000E+00  0.000E+00  0.000E+00  4.52211E+01  3.006E-01  2.000E+01  2.000E+04 -1.474E+00
   1   16    9     1     9    3.5315E+05 -2.9502E+04   3.8265E+05  0.000E+00  0.000E+00  0.000E+00  4.47592E+01  3.161E-01  2.000E+01  2.000E+04 -1.475E+00
   1   16   10     1    10    3.8265E+05 -2.9412E+04   4.1207E+05  0.000E+00  0.000E+00  0.000E+00  4.42969E+01  3.310E-01  2.000E+01  2.000E+04 -1.471E+00
   1   16   11     1    11    4.1207E+05 -2.9763E+04   4.4183E+05  0.000E+00  0.000E+00  0.000E+00  4.38342E+01  3.456E-01  2.000E+01  2.000E+04 -1.488E+00
   1   16   12     1    12    4.4183E+05 -3.4493E+04   4.7632E+05  0.000E+00  0.000E+00  0.000E+00  4.33723E+01  3.610E-01  2.000E+01  2.000E+04 -1.725E+00
   1   15   13     1    13    4.7632E+05 -3.2632E+04   5.0895E+05  0.000E+00  0.000E+00  0.000E+00  4.29107E+01  3.766E-01  2.000E+01  2.000E+04 -1.632E+00
   1   14   14     1    14    5.0895E+05 -3.2791E+04   5.4174E+05  0.000E+00  0.000E+00  0.000E+00  4.24482E+01  3.914E-01  2.000E+01  2.000E+04 -1.640E+00
   1   13   15     1    15    5.4174E+05 -3.5201E+04   5.7694E+05  0.000E+00  0.000E+00  0.000E+00  4.19859E+01  4.064E-01  2.000E+01  2.000E+04 -1.760E+00
   1   12   16     1    16    5.7694E+05 -4.2219E+04   6.1916E+05  0.000E+00  0.000E+00  0.000E+00  4.15253E+01  4.230E-01  2.000E+01  2.000E+04 -2.111E+00
   1   12   17     1    17    6.1916E+05 -3.2558E+04   6.5172E+05  0.000E+00  0.000E+00  0.000E+00  4.10637E+01  4.387E-01  2.000E+01  2.000E+04 -1.628E+00
   1   12   18     1    18    6.5172E+05 -3.1054E+04   6.8277E+05  0.000E+00  0.000E+00  0.000E+00  4.05995E+01  4.517E-01  2.000E+01  2.000E+04 -1.553E+00
   1   12   19     1    19    6.8277E+05 -3.5443E+04   7.1822E+05  0.000E+00  0.000E+00  0.000E+00  4.01356E+01  4.651E-01  2.000E+01  2.000E+04 -1.772E+00
   1   13   20     1    20    7.1822E+05 -2.5082E+04   7.4330E+05  0.000E+00  0.000E+00  0.000E+00  3.96703E+01  4.771E-01  2.000E+01  2.000E+04 -1.254E+00
   1   14   21     1    21    7.4330E+05 -1.7993E+04   7.6129E+05  0.000E+00  0.000E+00  0.000E+00  3.92014E+01  4.855E-01  2.000E+01  2.000E+04 -8.997E-01
   1   14   22     1    22    7.6129E+05 -1.3322E+03   7.6263E+05  0.000E+00  0.000E+00  0.000E+00  3.87278E+01  4.892E-01  2.000E+01  2.000E+04 -6.661E-02
   1    9   30     2     1    5.0000E+04 -2.6546E+04   7.6546E+04  0.000E+00  0.000E+00  0.000E+00  4.02584E+01  1.334E-01  2.000E+01  2.000E+04 -1.327E+00
   1    9   29     2     2    7.6546E+04 -2.9009E+04   1.0555E+05  0.000E+00  0.000E+00  0.000E+00  4.00410E+01  1.660E-01  2.000E+01  2.000E+04 -1.450E+00
   1    9   28     2     3    1.0555E+05 -3.3294E+04   1.3885E+05  0.000E+00  0.000E+00  0.000E+00  3.98231E+01  1.981E-01  2.000E+01  2.000E+04 -1.665E+00
   1    9   27     2     4    1.3885E+05 -4.7424E+04   1.8627E+05  0.000E+00  0.000E+00  0.000E+00  3.96101E+01  2.351E-01  2.000E+01  2.000E+04 -2.371E+00
   1   10   26     2     5    1.8627E+05 -3.3271E+04   2.1954E+05  0.000E+00  0.000E+00  0.000E+00  3.93935E+01  2.685E-01  2.000E+01  2.000E+04 -1.664E+00
   1   11   25     2     6    2.1954E+05 -2.4682E+04   2.4423E+05  0.000E+00  0.000E+00  0.000E+00  3.91659E+01  2.909E-01  2.000E+01  2.000E+04 -1.234E+00
   1   12   24     2     7    2.4423E+05 -1.7848E+04   2.6207E+05  0.000E+00  0.000E+00  0.000E+00  3.89316E+01  3.066E-01  2.000E+01  2.000E+04 -8.924E-01
   1   13   23     2     8    2.6207E+05 -1.2495E+04   2.7457E+05  0.000E+00  0.000E+00  0.000E+00  3.86925E+01  3.175E-01  2.000E+01  2.000E+04 -6.247E-01
   1   14   22     2     9    2.7457E+05 -6.9018E+03   2.8147E+05  0.000E+00  0.000E+00  0.000E+00  3.84494E+01  3.244E-01  2.000E+01  2.000E+04 -3.451E-01
   1   14   22     3     1    1.0441E+06 -1.4928E+04   1.0590E+06  0.000E+00  0.000E+00  0.000E+00  3.80480E+01  4.925E-01  2.000E+01  2.000E+04 -7.464E-01
   1   15   23     3     2    1.0590E+06 -2.2560E+04   1.0816E+06  0.000E+00  0.000E+00  0.000E+00  3.71644E+01  4.977E-01  2.000E+01  2.000E+04 -1.128E+00
   1   15   24     3     3    1.0816E+06 -1.8563E+04   1.1001E+06  0.000E+00  0.000E+00  0.000E+00  3.62812E+01  5.035E-01  2.000E+01  2.000E+04 -9.281E-01
   1   15   25     3     4    1.1001E+06 -1.7426E+04   1.1176E+06  0.000E+00  0.000E+00  0.000E+00  3.53973E+01  5.084E-01  2.000E+01  2.000E+04 -8.713E-01
   1   15   26     3     5    1.1176E+06 -2.1021E+04   1.1386E+06  0.000E+00  0.000E+00  0.000E+00  3.45137E+01  5.137E-01  2.000E+01  2.000E+04 -1.051E+00
   1   16   27     3     6    1.1386E+06 -2.8832E+04   1.1674E+06  0.000E+00  0.000E+00  0.000E+00  3.36316E+01  5.205E-01  2.000E+01  2.000E+04 -1.442E+00
   1   17   28     3     7    1.1674E+06 -3.6094E+04   1.2035E+06  0.000E+00  0.000E+00  0.000E+00  3.27514E+01  5.292E-01  2.000E+01  2.000E+04 -1.805E+00
   1   18   29     3     8    1.2035E+06 -4.7192E+04   1.2507E+06  0.000E+00  0.000E+00  0.000E+00  3.18736E+01  5.403E-01  2.000E+01  2.000E+04 -2.360E+00
   1   18   30     3     9    1.2507E+06 -4.3670E+04   1.2944E+06  0.000E+00  0.000E+00  0.000E+00  3.09967E+01  5.522E-01  2.000E+01  2.000E+04 -2.183E+00



1
  VOLUMETRIC BUDGET FOR ENTIRE MODEL AT END OF TIME STEP    1, STRESS PERIOD   4
  ------------------------------------------------------------------------------

     CUMULATIVE VOLUMES      L**3       RATES FOR THIS TIME STEP      L**3/T
     ------------------                 ------------------------

           IN:                                      IN:
           ---                                      ---
             STORAGE =    20067956.0000               STORAGE =          38.5510
       CONSTANT HEAD =   416333248.0000         CONSTANT HEAD =     1156176.8750
               WELLS =           0.0000                 WELLS =           0.0000
            RECHARGE =     8804400.0000              RECHARGE =       27600.0000
      STREAM LEAKAGE =           0.0000        STREAM LEAKAGE =           0.0000

            TOTAL IN =   445205632.0000              TOTAL IN =     1183815.3750

          OUT:                                     OUT:
          ----                                     ----
             STORAGE =      209209.9062               STORAGE =        1076.7462
       CONSTANT HEAD =           0.0000         CONSTANT HEAD =           0.0000
               WELLS =    15581022.0000                 WELLS =       38355.8789
            RECHARGE =           0.0000              RECHARGE =           0.0000
      STREAM LEAKAGE =   429415360.0000        STREAM LEAKAGE =     1144381.7500

           TOTAL OUT =   445205600.0000             TOTAL OUT =     1183814.3750

            IN - OUT =          32.0000              IN - OUT =           1.0000

 PERCENT DISCREPANCY =           0.00     PERCENT DISCREPANCY =           0.00






         TIME SUMMARY AT END OF TIME STEP    1 IN STRESS PERIOD    4
                    SECONDS     MINUTES      HOURS       DAYS        YEARS
                    -----------------------------------------------------------
   TIME STEP LENGTH 7.86240E+06 1.31040E+05  2184.0      91.000     0.24914    
 STRESS PERIOD TIME 7.86240E+06 1.31040E+05  2184.0      91.000     0.24914    
         TOTAL TIME 3.15360E+07 5.25600E+05  8760.0      365.00     0.99932    
1
1
                            STRESS PERIOD NO.    5, LENGTH =   92.00000    
                            -----------------------------------------------

                              NUMBER OF TIME STEPS =     1

                               MULTIPLIER FOR DELT =     1.500

                            INITIAL TIME STEP SIZE =   92.00000    

 WELL NO.  LAYER   ROW   COL   STRESS RATE         
 --------------------------------------------------
      1      1     12     11       0.000    
      2      1     16     17     -0.5000E+05
      3      1     11     22     -0.3000E+05
      4      1     14     25       0.000    

      4 WELLS

                 RECHARGE =  5.000000E-04

 REUSING STREAM SEGMENT DATA FROM LAST STRESS PERIOD
 
 SOLVING FOR HEAD 


     5 CALLS TO PCG ROUTINE FOR TIME STEP   1 IN STRESS PERIOD    5
    18 TOTAL ITERATIONS

 HEAD/DRAWDOWN PRINTOUT FLAG = 1     TOTAL BUDGET PRINTOUT FLAG = 1
 CELL-BY-CELL FLOW TERM FLAG = 1

 OUTPUT FLAGS FOR ALL LAYERS ARE THE SAME:
   HEAD    DRAWDOWN  HEAD  DRAWDOWN
 PRINTOUT  PRINTOUT  SAVE    SAVE
 ----------------------------------
     0         0       0       0



 STREAM LISTING     PERIOD      5   STEP        1

 LAYER ROW COL. STREAM  RCH.  FLOW INTO     FLOW TO   FLOW OUT OF   OVRLND.     DIRECT     STREAM       STREAM     STREAM     STREAM   STREAMBED  STREAMBED
                SEG.NO.  NO.  STRM. RCH.    AQUIFER    STRM. RCH.    RUNOFF     PRECIP       ET          HEAD       DEPTH      WIDTH   CONDCTNC.   GRADIENT

   1   13    1     1     1    1.0000E+05 -2.7660E+04   1.2766E+05  0.000E+00  0.000E+00  0.000E+00  4.84177E+01  1.563E-01  2.000E+01  2.000E+04 -1.383E+00
   1   13    2     1     2    1.2766E+05 -3.7364E+04   1.6502E+05  0.000E+00  0.000E+00  0.000E+00  4.79659E+01  1.818E-01  2.000E+01  2.000E+04 -1.868E+00
   1   14    3     1     3    1.6502E+05 -3.2834E+04   1.9786E+05  0.000E+00  0.000E+00  0.000E+00  4.75136E+01  2.068E-01  2.000E+01  2.000E+04 -1.642E+00
   1   15    4     1     4    1.9786E+05 -3.2061E+04   2.2992E+05  0.000E+00  0.000E+00  0.000E+00  4.70578E+01  2.283E-01  2.000E+01  2.000E+04 -1.603E+00
   1   16    5     1     5    2.2992E+05 -3.3567E+04   2.6349E+05  0.000E+00  0.000E+00  0.000E+00  4.66009E+01  2.487E-01  2.000E+01  2.000E+04 -1.678E+00
   1   16    6     1     6    2.6349E+05 -2.9298E+04   2.9278E+05  0.000E+00  0.000E+00  0.000E+00  4.61422E+01  2.672E-01  2.000E+01  2.000E+04 -1.465E+00
   1   16    7     1     7    2.9278E+05 -2.9078E+04   3.2186E+05  0.000E+00  0.000E+00  0.000E+00  4.56814E+01  2.837E-01  2.000E+01  2.000E+04 -1.454E+00
   1   16    8     1     8    3.2186E+05 -2.9191E+04   3.5105E+05  0.000E+00  0.000E+00  0.000E+00  4.52200E+01  2.996E-01  2.000E+01  2.000E+04 -1.460E+00
   1   16    9     1     9    3.5105E+05 -2.9156E+04   3.8021E+05  0.000E+00  0.000E+00  0.000E+00  4.47581E+01  3.149E-01  2.000E+01  2.000E+04 -1.458E+00
   1   16   10     1    10    3.8021E+05 -2.8982E+04   4.0919E+05  0.000E+00  0.000E+00  0.000E+00  4.42956E+01  3.297E-01  2.000E+01  2.000E+04 -1.449E+00
   1   16   11     1    11    4.0919E+05 -2.9157E+04   4.3835E+05  0.000E+00  0.000E+00  0.000E+00  4.38327E+01  3.440E-01  2.000E+01  2.000E+04 -1.458E+00
   1   16   12     1    12    4.3835E+05 -3.3341E+04   4.7169E+05  0.000E+00  0.000E+00  0.000E+00  4.33704E+01  3.590E-01  2.000E+01  2.000E+04 -1.667E+00
   1   15   13     1    13    4.7169E+05 -3.1045E+04   5.0273E+05  0.000E+00  0.000E+00  0.000E+00  4.29082E+01  3.741E-01  2.000E+01  2.000E+04 -1.552E+00
   1   14   14     1    14    5.0273E+05 -3.0876E+04   5.3361E+05  0.000E+00  0.000E+00  0.000E+00  4.24450E+01  3.882E-01  2.000E+01  2.000E+04 -1.544E+00
   1   13   15     1    15    5.3361E+05 -3.3299E+04   5.6691E+05  0.000E+00  0.000E+00  0.000E+00  4.19819E+01  4.024E-01  2.000E+01  2.000E+04 -1.665E+00
   1   12   16     1    16    5.6691E+05 -4.0699E+04   6.0761E+05  0.000E+00  0.000E+00  0.000E+00  4.15207E+01  4.184E-01  2.000E+01  2.000E+04 -2.035E+00
   1   12   17     1    17    6.0761E+05 -3.0810E+04   6.3842E+05  0.000E+00  0.000E+00  0.000E+00  4.10585E+01  4.335E-01  2.000E+01  2.000E+04 -1.541E+00
   1   12   18     1    18    6.3842E+05 -2.8938E+04   6.6736E+05  0.000E+00  0.000E+00  0.000E+00  4.05936E+01  4.459E-01  2.000E+01  2.000E+04 -1.447E+00
   1   12   19     1    19    6.6736E+05 -3.2121E+04   6.9948E+05  0.000E+00  0.000E+00  0.000E+00  4.01287E+01  4.583E-01  2.000E+01  2.000E+04 -1.606E+00
   1   13   20     1    20    6.9948E+05 -2.1364E+04   7.2084E+05  0.000E+00  0.000E+00  0.000E+00  3.96621E+01  4.690E-01  2.000E+01  2.000E+04 -1.068E+00
   1   14   21     1    21    7.2084E+05 -1.5486E+04   7.3633E+05  0.000E+00  0.000E+00  0.000E+00  3.91921E+01  4.762E-01  2.000E+01  2.000E+04 -7.743E-01
   1   14   22     1    22    7.3633E+05 -3.8522E+02   7.3671E+05  0.000E+00  0.000E+00  0.000E+00  3.87180E+01  4.793E-01  2.000E+01  2.000E+04 -1.926E-02
   1    9   30     2     1    5.0000E+04 -2.6280E+04   7.6280E+04  0.000E+00  0.000E+00  0.000E+00  4.02583E+01  1.333E-01  2.000E+01  2.000E+04 -1.314E+00
   1    9   29     2     2    7.6280E+04 -2.8704E+04   1.0498E+05  0.000E+00  0.000E+00  0.000E+00  4.00406E+01  1.656E-01  2.000E+01  2.000E+04 -1.435E+00
   1    9   28     2     3    1.0498E+05 -3.2861E+04   1.3784E+05  0.000E+00  0.000E+00  0.000E+00  3.98223E+01  1.973E-01  2.000E+01  2.000E+04 -1.643E+00
   1    9   27     2     4    1.3784E+05 -4.6541E+04   1.8439E+05  0.000E+00  0.000E+00  0.000E+00  3.96088E+01  2.338E-01  2.000E+01  2.000E+04 -2.327E+00
   1   10   26     2     5    1.8439E+05 -3.1893E+04   2.1628E+05  0.000E+00  0.000E+00  0.000E+00  3.93915E+01  2.665E-01  2.000E+01  2.000E+04 -1.595E+00
   1   11   25     2     6    2.1628E+05 -2.2356E+04   2.3863E+05  0.000E+00  0.000E+00  0.000E+00  3.91625E+01  2.875E-01  2.000E+01  2.000E+04 -1.118E+00
   1   12   24     2     7    2.3863E+05 -1.4537E+04   2.5317E+05  0.000E+00  0.000E+00  0.000E+00  3.89263E+01  3.013E-01  2.000E+01  2.000E+04 -7.269E-01
   1   13   23     2     8    2.5317E+05 -9.4138E+03   2.6259E+05  0.000E+00  0.000E+00  0.000E+00  3.86850E+01  3.100E-01  2.000E+01  2.000E+04 -4.707E-01
   1   14   22     2     9    2.6259E+05 -5.9336E+03   2.6852E+05  0.000E+00  0.000E+00  0.000E+00  3.84405E+01  3.155E-01  2.000E+01  2.000E+04 -2.967E-01
   1   14   22     3     1    1.0052E+06 -1.4006E+04   1.0192E+06  0.000E+00  0.000E+00  0.000E+00  3.80369E+01  4.814E-01  2.000E+01  2.000E+04 -7.003E-01
   1   15   23     3     2    1.0192E+06 -2.1873E+04   1.0411E+06  0.000E+00  0.000E+00  0.000E+00  3.71531E+01  4.865E-01  2.000E+01  2.000E+04 -1.094E+00
   1   15   24     3     3    1.0411E+06 -1.8754E+04   1.0599E+06  0.000E+00  0.000E+00  0.000E+00  3.62700E+01  4.922E-01  2.000E+01  2.000E+04 -9.377E-01
   1   15   25     3     4    1.0599E+06 -1.8682E+04   1.0785E+06  0.000E+00  0.000E+00  0.000E+00  3.53863E+01  4.974E-01  2.000E+01  2.000E+04 -9.341E-01
   1   15   26     3     5    1.0785E+06 -2.1600E+04   1.1001E+06  0.000E+00  0.000E+00  0.000E+00  3.45030E+01  5.030E-01  2.000E+01  2.000E+04 -1.080E+00
   1   16   27     3     6    1.1001E+06 -2.8777E+04   1.1289E+06  0.000E+00  0.000E+00  0.000E+00  3.36211E+01  5.100E-01  2.000E+01  2.000E+04 -1.439E+00
   1   17   28     3     7    1.1289E+06 -3.5914E+04   1.1648E+06  0.000E+00  0.000E+00  0.000E+00  3.27410E+01  5.188E-01  2.000E+01  2.000E+04 -1.796E+00
   1   18   29     3     8    1.1648E+06 -4.6991E+04   1.2118E+06  0.000E+00  0.000E+00  0.000E+00  3.18633E+01  5.300E-01  2.000E+01  2.000E+04 -2.350E+00
   1   18   30     3     9    1.2118E+06 -4.3523E+04   1.2554E+06  0.000E+00  0.000E+00  0.000E+00  3.09864E+01  5.420E-01  2.000E+01  2.000E+04 -2.176E+00



1
  VOLUMETRIC BUDGET FOR ENTIRE MODEL AT END OF TIME STEP    1, STRESS PERIOD   5
  ------------------------------------------------------------------------------

     CUMULATIVE VOLUMES      L**3       RATES FOR THIS TIME STEP      L**3/T
     ------------------                 ------------------------

           IN:                                      IN:
           ---                                      ---
             STORAGE =    20308638.0000               STORAGE =        2616.1108
       CONSTANT HEAD =   523877248.0000         CONSTANT HEAD =     1168956.5000
               WELLS =           0.0000                 WELLS =           0.0000
            RECHARGE =    10074000.0000              RECHARGE =       13800.0000
      STREAM LEAKAGE =           0.0000        STREAM LEAKAGE =           0.0000

            TOTAL IN =   554259840.0000              TOTAL IN =     1185372.6250

          OUT:                                     OUT:
          ----                                     ----
             STORAGE =      211343.7656               STORAGE =          23.1942
       CONSTANT HEAD =           0.0000         CONSTANT HEAD =           0.0000
               WELLS =    22941022.0000                 WELLS =       80000.0000
            RECHARGE =           0.0000              RECHARGE =           0.0000
      STREAM LEAKAGE =   531107648.0000        STREAM LEAKAGE =     1105351.1250

           TOTAL OUT =   554259968.0000             TOTAL OUT =     1185374.3750

            IN - OUT =        -128.0000              IN - OUT =          -1.7500

 PERCENT DISCREPANCY =          -0.00     PERCENT DISCREPANCY =          -0.00






         TIME SUMMARY AT END OF TIME STEP    1 IN STRESS PERIOD    5
                    SECONDS     MINUTES      HOURS       DAYS        YEARS
                    -----------------------------------------------------------
   TIME STEP LENGTH 7.94880E+06 1.32480E+05  2208.0      92.000     0.25188    
 STRESS PERIOD TIME 7.94880E+06 1.32480E+05  2208.0      92.000     0.25188    
         TOTAL TIME 3.94848E+07 6.58080E+05  10968.      457.00      1.2512    
1
1
                            STRESS PERIOD NO.    6, LENGTH =   91.00000    
                            -----------------------------------------------

                              NUMBER OF TIME STEPS =     1

                               MULTIPLIER FOR DELT =     1.500

                            INITIAL TIME STEP SIZE =   91.00000    

 WELL NO.  LAYER   ROW   COL   STRESS RATE         
 --------------------------------------------------
      1      1     12     11       0.000    
      2      1     16     17       0.000    
      3      1     11     22     -0.3000E+05
      4      1     14     25     -0.5000E+05

      4 WELLS

                 RECHARGE =  2.000000E-03

 REUSING STREAM SEGMENT DATA FROM LAST STRESS PERIOD
 
 SOLVING FOR HEAD 


     5 CALLS TO PCG ROUTINE FOR TIME STEP   1 IN STRESS PERIOD    6
    19 TOTAL ITERATIONS

 HEAD/DRAWDOWN PRINTOUT FLAG = 1     TOTAL BUDGET PRINTOUT FLAG = 1
 CELL-BY-CELL FLOW TERM FLAG = 1

 OUTPUT FLAGS FOR ALL LAYERS ARE THE SAME:
   HEAD    DRAWDOWN  HEAD  DRAWDOWN
 PRINTOUT  PRINTOUT  SAVE    SAVE
 ----------------------------------
     0         0       0       0



 STREAM LISTING     PERIOD      6   STEP        1

 LAYER ROW COL. STREAM  RCH.  FLOW INTO     FLOW TO   FLOW OUT OF   OVRLND.     DIRECT     STREAM       STREAM     STREAM     STREAM   STREAMBED  STREAMBED
                SEG.NO.  NO.  STRM. RCH.    AQUIFER    STRM. RCH.    RUNOFF     PRECIP       ET          HEAD       DEPTH      WIDTH   CONDCTNC.   GRADIENT

   1   13    1     1     1    1.0000E+05 -2.8341E+04   1.2834E+05  0.000E+00  0.000E+00  0.000E+00  4.84180E+01  1.566E-01  2.000E+01  2.000E+04 -1.417E+00
   1   13    2     1     2    1.2834E+05 -3.8182E+04   1.6652E+05  0.000E+00  0.000E+00  0.000E+00  4.79667E+01  1.826E-01  2.000E+01  2.000E+04 -1.909E+00
   1   14    3     1     3    1.6652E+05 -3.3647E+04   2.0017E+05  0.000E+00  0.000E+00  0.000E+00  4.75149E+01  2.081E-01  2.000E+01  2.000E+04 -1.682E+00
   1   15    4     1     4    2.0017E+05 -3.2861E+04   2.3303E+05  0.000E+00  0.000E+00  0.000E+00  4.70595E+01  2.300E-01  2.000E+01  2.000E+04 -1.643E+00
   1   16    5     1     5    2.3303E+05 -3.4327E+04   2.6736E+05  0.000E+00  0.000E+00  0.000E+00  4.66031E+01  2.508E-01  2.000E+01  2.000E+04 -1.716E+00
   1   16    6     1     6    2.6736E+05 -2.9993E+04   2.9735E+05  0.000E+00  0.000E+00  0.000E+00  4.61446E+01  2.697E-01  2.000E+01  2.000E+04 -1.500E+00
   1   16    7     1     7    2.9735E+05 -2.9815E+04   3.2717E+05  0.000E+00  0.000E+00  0.000E+00  4.56842E+01  2.864E-01  2.000E+01  2.000E+04 -1.491E+00
   1   16    8     1     8    3.2717E+05 -3.0004E+04   3.5717E+05  0.000E+00  0.000E+00  0.000E+00  4.52231E+01  3.026E-01  2.000E+01  2.000E+04 -1.500E+00
   1   16    9     1     9    3.5717E+05 -3.0089E+04   3.8726E+05  0.000E+00  0.000E+00  0.000E+00  4.47615E+01  3.183E-01  2.000E+01  2.000E+04 -1.504E+00
   1   16   10     1    10    3.8726E+05 -3.0119E+04   4.1738E+05  0.000E+00  0.000E+00  0.000E+00  4.42994E+01  3.335E-01  2.000E+01  2.000E+04 -1.506E+00
   1   16   11     1    11    4.1738E+05 -3.0730E+04   4.4811E+05  0.000E+00  0.000E+00  0.000E+00  4.38370E+01  3.484E-01  2.000E+01  2.000E+04 -1.536E+00
   1   16   12     1    12    4.4811E+05 -3.6301E+04   4.8441E+05  0.000E+00  0.000E+00  0.000E+00  4.33757E+01  3.643E-01  2.000E+01  2.000E+04 -1.815E+00
   1   15   13     1    13    4.8441E+05 -3.5050E+04   5.1946E+05  0.000E+00  0.000E+00  0.000E+00  4.29149E+01  3.808E-01  2.000E+01  2.000E+04 -1.752E+00
   1   14   14     1    14    5.1946E+05 -3.5592E+04   5.5505E+05  0.000E+00  0.000E+00  0.000E+00  4.24535E+01  3.967E-01  2.000E+01  2.000E+04 -1.780E+00
   1   13   15     1    15    5.5505E+05 -3.7713E+04   5.9276E+05  0.000E+00  0.000E+00  0.000E+00  4.19922E+01  4.127E-01  2.000E+01  2.000E+04 -1.886E+00
   1   12   16     1    16    5.9276E+05 -4.3531E+04   6.3629E+05  0.000E+00  0.000E+00  0.000E+00  4.15323E+01  4.300E-01  2.000E+01  2.000E+04 -2.177E+00
   1   12   17     1    17    6.3629E+05 -3.3766E+04   6.7006E+05  0.000E+00  0.000E+00  0.000E+00  4.10710E+01  4.460E-01  2.000E+01  2.000E+04 -1.688E+00
   1   12   18     1    18    6.7006E+05 -3.1637E+04   7.0170E+05  0.000E+00  0.000E+00  0.000E+00  4.06070E+01  4.593E-01  2.000E+01  2.000E+04 -1.582E+00
   1   12   19     1    19    7.0170E+05 -3.4272E+04   7.3597E+05  0.000E+00  0.000E+00  0.000E+00  4.01428E+01  4.724E-01  2.000E+01  2.000E+04 -1.714E+00
   1   13   20     1    20    7.3597E+05 -2.4390E+04   7.6036E+05  0.000E+00  0.000E+00  0.000E+00  3.96770E+01  4.839E-01  2.000E+01  2.000E+04 -1.219E+00
   1   14   21     1    21    7.6036E+05 -1.8303E+04   7.7866E+05  0.000E+00  0.000E+00  0.000E+00  3.92080E+01  4.921E-01  2.000E+01  2.000E+04 -9.151E-01
   1   14   22     1    22    7.7866E+05 -2.1818E+02   7.7888E+05  0.000E+00  0.000E+00  0.000E+00  3.87343E+01  4.956E-01  2.000E+01  2.000E+04 -1.091E-02
   1    9   30     2     1    5.0000E+04 -2.6223E+04   7.6223E+04  0.000E+00  0.000E+00  0.000E+00  4.02582E+01  1.332E-01  2.000E+01  2.000E+04 -1.311E+00
   1    9   29     2     2    7.6223E+04 -2.8622E+04   1.0485E+05  0.000E+00  0.000E+00  0.000E+00  4.00404E+01  1.654E-01  2.000E+01  2.000E+04 -1.431E+00
   1    9   28     2     3    1.0485E+05 -3.2754E+04   1.3760E+05  0.000E+00  0.000E+00  0.000E+00  3.98221E+01  1.971E-01  2.000E+01  2.000E+04 -1.638E+00
   1    9   27     2     4    1.3760E+05 -4.6475E+04   1.8407E+05  0.000E+00  0.000E+00  0.000E+00  3.96086E+01  2.336E-01  2.000E+01  2.000E+04 -2.324E+00
   1   10   26     2     5    1.8407E+05 -3.1051E+04   2.1512E+05  0.000E+00  0.000E+00  0.000E+00  3.93909E+01  2.659E-01  2.000E+01  2.000E+04 -1.553E+00
   1   11   25     2     6    2.1512E+05 -2.0025E+04   2.3515E+05  0.000E+00  0.000E+00  0.000E+00  3.91608E+01  2.858E-01  2.000E+01  2.000E+04 -1.001E+00
   1   12   24     2     7    2.3515E+05 -1.0757E+04   2.4591E+05  0.000E+00  0.000E+00  0.000E+00  3.89224E+01  2.974E-01  2.000E+01  2.000E+04 -5.378E-01
   1   13   23     2     8    2.4591E+05 -6.4692E+03   2.5238E+05  0.000E+00  0.000E+00  0.000E+00  3.86787E+01  3.037E-01  2.000E+01  2.000E+04 -3.235E-01
   1   14   22     2     9    2.5238E+05 -6.2374E+03   2.5861E+05  0.000E+00  0.000E+00  0.000E+00  3.84333E+01  3.083E-01  2.000E+01  2.000E+04 -3.119E-01
   1   14   22     3     1    1.0375E+06 -1.3983E+04   1.0515E+06  0.000E+00  0.000E+00  0.000E+00  3.80461E+01  4.905E-01  2.000E+01  2.000E+04 -6.991E-01
   1   15   23     3     2    1.0515E+06 -2.1477E+04   1.0730E+06  0.000E+00  0.000E+00  0.000E+00  3.71621E+01  4.955E-01  2.000E+01  2.000E+04 -1.074E+00
   1   15   24     3     3    1.0730E+06 -1.4217E+04   1.0872E+06  0.000E+00  0.000E+00  0.000E+00  3.62782E+01  5.005E-01  2.000E+01  2.000E+04 -7.109E-01
   1   15   25     3     4    1.0872E+06 -7.8248E+03   1.0950E+06  0.000E+00  0.000E+00  0.000E+00  3.53924E+01  5.035E-01  2.000E+01  2.000E+04 -3.912E-01
   1   15   26     3     5    1.0950E+06 -1.5607E+04   1.1106E+06  0.000E+00  0.000E+00  0.000E+00  3.45068E+01  5.068E-01  2.000E+01  2.000E+04 -7.804E-01
   1   16   27     3     6    1.1106E+06 -2.7439E+04   1.1380E+06  0.000E+00  0.000E+00  0.000E+00  3.36238E+01  5.127E-01  2.000E+01  2.000E+04 -1.372E+00
   1   17   28     3     7    1.1380E+06 -3.5731E+04   1.1738E+06  0.000E+00  0.000E+00  0.000E+00  3.27435E+01  5.213E-01  2.000E+01  2.000E+04 -1.787E+00
   1   18   29     3     8    1.1738E+06 -4.7255E+04   1.2210E+06  0.000E+00  0.000E+00  0.000E+00  3.18657E+01  5.324E-01  2.000E+01  2.000E+04 -2.363E+00
   1   18   30     3     9    1.2210E+06 -4.3669E+04   1.2647E+06  0.000E+00  0.000E+00  0.000E+00  3.09889E+01  5.444E-01  2.000E+01  2.000E+04 -2.183E+00



1
  VOLUMETRIC BUDGET FOR ENTIRE MODEL AT END OF TIME STEP    1, STRESS PERIOD   6
  ------------------------------------------------------------------------------

     CUMULATIVE VOLUMES      L**3       RATES FOR THIS TIME STEP      L**3/T
     ------------------                 ------------------------

           IN:                                      IN:
           ---                                      ---
             STORAGE =    20349052.0000               STORAGE =         444.1208
       CONSTANT HEAD =   627913920.0000         CONSTANT HEAD =     1143260.0000
               WELLS =           0.0000                 WELLS =           0.0000
            RECHARGE =    15097200.0000              RECHARGE =       55200.0000
      STREAM LEAKAGE =           0.0000        STREAM LEAKAGE =           0.0000

            TOTAL IN =   663360192.0000              TOTAL IN =     1198904.1250

          OUT:                                     OUT:
          ----                                     ----
             STORAGE =      594269.3750               STORAGE =        4207.9736
       CONSTANT HEAD =           0.0000         CONSTANT HEAD =           0.0000
               WELLS =    30221022.0000                 WELLS =       80000.0000
            RECHARGE =           0.0000              RECHARGE =           0.0000
      STREAM LEAKAGE =   632544896.0000        STREAM LEAKAGE =     1114695.1250

           TOTAL OUT =   663360128.0000             TOTAL OUT =     1198903.1250

            IN - OUT =          64.0000              IN - OUT =           1.0000

 PERCENT DISCREPANCY =           0.00     PERCENT DISCREPANCY =           0.00






         TIME SUMMARY AT END OF TIME STEP    1 IN STRESS PERIOD    6
                    SECONDS     MINUTES      HOURS       DAYS        YEARS
                    -----------------------------------------------------------
   TIME STEP LENGTH 7.86240E+06 1.31040E+05  2184.0      91.000     0.24914    
 STRESS PERIOD TIME 7.86240E+06 1.31040E+05  2184.0      91.000     0.24914    
         TOTAL TIME 4.73472E+07 7.89120E+05  13152.      548.00      1.5003    
1
1
                            STRESS PERIOD NO.    7, LENGTH =   91.00000    
                            -----------------------------------------------

                              NUMBER OF TIME STEPS =     1

                               MULTIPLIER FOR DELT =     1.500

                            INITIAL TIME STEP SIZE =   91.00000    

 WELL NO.  LAYER   ROW   COL   STRESS RATE         
 --------------------------------------------------
      1      1     12     11       0.000    
      2      1     16     17     -0.3231E+05
      3      1     11     22     -0.3000E+05
      4      1     14     25       0.000    

      4 WELLS

                 RECHARGE =   0.00000    

 REUSING STREAM SEGMENT DATA FROM LAST STRESS PERIOD
 
 SOLVING FOR HEAD 


     5 CALLS TO PCG ROUTINE FOR TIME STEP   1 IN STRESS PERIOD    7
    19 TOTAL ITERATIONS

 HEAD/DRAWDOWN PRINTOUT FLAG = 1     TOTAL BUDGET PRINTOUT FLAG = 1
 CELL-BY-CELL FLOW TERM FLAG = 1

 OUTPUT FLAGS FOR ALL LAYERS ARE THE SAME:
   HEAD    DRAWDOWN  HEAD  DRAWDOWN
 PRINTOUT  PRINTOUT  SAVE    SAVE
 ----------------------------------
     0         0       0       0



 STREAM LISTING     PERIOD      7   STEP        1

 LAYER ROW COL. STREAM  RCH.  FLOW INTO     FLOW TO   FLOW OUT OF   OVRLND.     DIRECT     STREAM       STREAM     STREAM     STREAM   STREAMBED  STREAMBED
                SEG.NO.  NO.  STRM. RCH.    AQUIFER    STRM. RCH.    RUNOFF     PRECIP       ET          HEAD       DEPTH      WIDTH   CONDCTNC.   GRADIENT

   1   13    1     1     1    1.0000E+05 -2.7478E+04   1.2748E+05  0.000E+00  0.000E+00  0.000E+00  4.84176E+01  1.563E-01  2.000E+01  2.000E+04 -1.374E+00
   1   13    2     1     2    1.2748E+05 -3.7150E+04   1.6463E+05  0.000E+00  0.000E+00  0.000E+00  4.79657E+01  1.816E-01  2.000E+01  2.000E+04 -1.857E+00
   1   14    3     1     3    1.6463E+05 -3.2628E+04   1.9726E+05  0.000E+00  0.000E+00  0.000E+00  4.75133E+01  2.065E-01  2.000E+01  2.000E+04 -1.631E+00
   1   15    4     1     4    1.9726E+05 -3.1869E+04   2.2912E+05  0.000E+00  0.000E+00  0.000E+00  4.70574E+01  2.278E-01  2.000E+01  2.000E+04 -1.593E+00
   1   16    5     1     5    2.2912E+05 -3.3409E+04   2.6253E+05  0.000E+00  0.000E+00  0.000E+00  4.66004E+01  2.481E-01  2.000E+01  2.000E+04 -1.670E+00
   1   16    6     1     6    2.6253E+05 -2.9175E+04   2.9171E+05  0.000E+00  0.000E+00  0.000E+00  4.61416E+01  2.666E-01  2.000E+01  2.000E+04 -1.459E+00
   1   16    7     1     7    2.9171E+05 -2.8976E+04   3.2069E+05  0.000E+00  0.000E+00  0.000E+00  4.56808E+01  2.831E-01  2.000E+01  2.000E+04 -1.449E+00
   1   16    8     1     8    3.2069E+05 -2.9119E+04   3.4980E+05  0.000E+00  0.000E+00  0.000E+00  4.52194E+01  2.989E-01  2.000E+01  2.000E+04 -1.456E+00
   1   16    9     1     9    3.4980E+05 -2.9132E+04   3.7894E+05  0.000E+00  0.000E+00  0.000E+00  4.47574E+01  3.142E-01  2.000E+01  2.000E+04 -1.457E+00
   1   16   10     1    10    3.7894E+05 -2.9039E+04   4.0797E+05  0.000E+00  0.000E+00  0.000E+00  4.42950E+01  3.290E-01  2.000E+01  2.000E+04 -1.452E+00
   1   16   11     1    11    4.0797E+05 -2.9378E+04   4.3735E+05  0.000E+00  0.000E+00  0.000E+00  4.38321E+01  3.435E-01  2.000E+01  2.000E+04 -1.469E+00
   1   16   12     1    12    4.3735E+05 -3.4031E+04   4.7138E+05  0.000E+00  0.000E+00  0.000E+00  4.33701E+01  3.587E-01  2.000E+01  2.000E+04 -1.702E+00
   1   15   13     1    13    4.7138E+05 -3.2071E+04   5.0346E+05  0.000E+00  0.000E+00  0.000E+00  4.29083E+01  3.742E-01  2.000E+01  2.000E+04 -1.604E+00
   1   14   14     1    14    5.0346E+05 -3.2142E+04   5.3560E+05  0.000E+00  0.000E+00  0.000E+00  4.24456E+01  3.888E-01  2.000E+01  2.000E+04 -1.607E+00
   1   13   15     1    15    5.3560E+05 -3.4449E+04   5.7005E+05  0.000E+00  0.000E+00  0.000E+00  4.19831E+01  4.035E-01  2.000E+01  2.000E+04 -1.722E+00
   1   12   16     1    16    5.7005E+05 -4.1268E+04   6.1131E+05  0.000E+00  0.000E+00  0.000E+00  4.15222E+01  4.199E-01  2.000E+01  2.000E+04 -2.063E+00
   1   12   17     1    17    6.1131E+05 -3.1522E+04   6.4284E+05  0.000E+00  0.000E+00  0.000E+00  4.10602E+01  4.352E-01  2.000E+01  2.000E+04 -1.576E+00
   1   12   18     1    18    6.4284E+05 -2.9577E+04   6.7241E+05  0.000E+00  0.000E+00  0.000E+00  4.05956E+01  4.478E-01  2.000E+01  2.000E+04 -1.479E+00
   1   12   19     1    19    6.7241E+05 -3.2536E+04   7.0495E+05  0.000E+00  0.000E+00  0.000E+00  4.01309E+01  4.604E-01  2.000E+01  2.000E+04 -1.627E+00
   1   13   20     1    20    7.0495E+05 -2.2185E+04   7.2713E+05  0.000E+00  0.000E+00  0.000E+00  3.96645E+01  4.713E-01  2.000E+01  2.000E+04 -1.109E+00
   1   14   21     1    21    7.2713E+05 -1.6349E+04   7.4348E+05  0.000E+00  0.000E+00  0.000E+00  3.91948E+01  4.789E-01  2.000E+01  2.000E+04 -8.175E-01
   1   14   22     1    22    7.4348E+05 -5.0212E+02   7.4399E+05  0.000E+00  0.000E+00  0.000E+00  3.87208E+01  4.821E-01  2.000E+01  2.000E+04 -2.511E-02
   1    9   30     2     1    5.0000E+04 -2.6116E+04   7.6116E+04  0.000E+00  0.000E+00  0.000E+00  4.02582E+01  1.332E-01  2.000E+01  2.000E+04 -1.306E+00
   1    9   29     2     2    7.6116E+04 -2.8539E+04   1.0465E+05  0.000E+00  0.000E+00  0.000E+00  4.00403E+01  1.653E-01  2.000E+01  2.000E+04 -1.427E+00
   1    9   28     2     3    1.0465E+05 -3.2688E+04   1.3734E+05  0.000E+00  0.000E+00  0.000E+00  3.98219E+01  1.969E-01  2.000E+01  2.000E+04 -1.634E+00
   1    9   27     2     4    1.3734E+05 -4.6325E+04   1.8367E+05  0.000E+00  0.000E+00  0.000E+00  3.96083E+01  2.333E-01  2.000E+01  2.000E+04 -2.316E+00
   1   10   26     2     5    1.8367E+05 -3.1659E+04   2.1533E+05  0.000E+00  0.000E+00  0.000E+00  3.93908E+01  2.658E-01  2.000E+01  2.000E+04 -1.583E+00
   1   11   25     2     6    2.1533E+05 -2.2122E+04   2.3745E+05  0.000E+00  0.000E+00  0.000E+00  3.91617E+01  2.867E-01  2.000E+01  2.000E+04 -1.106E+00
   1   12   24     2     7    2.3745E+05 -1.4342E+04   2.5179E+05  0.000E+00  0.000E+00  0.000E+00  3.89254E+01  3.004E-01  2.000E+01  2.000E+04 -7.171E-01
   1   13   23     2     8    2.5179E+05 -9.3385E+03   2.6113E+05  0.000E+00  0.000E+00  0.000E+00  3.86840E+01  3.090E-01  2.000E+01  2.000E+04 -4.669E-01
   1   14   22     2     9    2.6113E+05 -6.1262E+03   2.6726E+05  0.000E+00  0.000E+00  0.000E+00  3.84396E+01  3.146E-01  2.000E+01  2.000E+04 -3.063E-01
   1   14   22     3     1    1.0112E+06 -1.4145E+04   1.0254E+06  0.000E+00  0.000E+00  0.000E+00  3.80387E+01  4.831E-01  2.000E+01  2.000E+04 -7.072E-01
   1   15   23     3     2    1.0254E+06 -2.2244E+04   1.0476E+06  0.000E+00  0.000E+00  0.000E+00  3.71549E+01  4.883E-01  2.000E+01  2.000E+04 -1.112E+00
   1   15   24     3     3    1.0476E+06 -1.8845E+04   1.0665E+06  0.000E+00  0.000E+00  0.000E+00  3.62718E+01  4.940E-01  2.000E+01  2.000E+04 -9.423E-01
   1   15   25     3     4    1.0665E+06 -1.8652E+04   1.0851E+06  0.000E+00  0.000E+00  0.000E+00  3.53882E+01  4.993E-01  2.000E+01  2.000E+04 -9.326E-01
   1   15   26     3     5    1.0851E+06 -2.1489E+04   1.1066E+06  0.000E+00  0.000E+00  0.000E+00  3.45048E+01  5.048E-01  2.000E+01  2.000E+04 -1.074E+00
   1   16   27     3     6    1.1066E+06 -2.8689E+04   1.1353E+06  0.000E+00  0.000E+00  0.000E+00  3.36229E+01  5.117E-01  2.000E+01  2.000E+04 -1.434E+00
   1   17   28     3     7    1.1353E+06 -3.5822E+04   1.1711E+06  0.000E+00  0.000E+00  0.000E+00  3.27428E+01  5.205E-01  2.000E+01  2.000E+04 -1.791E+00
   1   18   29     3     8    1.1711E+06 -4.6902E+04   1.2180E+06  0.000E+00  0.000E+00  0.000E+00  3.18650E+01  5.317E-01  2.000E+01  2.000E+04 -2.345E+00
   1   18   30     3     9    1.2180E+06 -4.3424E+04   1.2615E+06  0.000E+00  0.000E+00  0.000E+00  3.09881E+01  5.436E-01  2.000E+01  2.000E+04 -2.171E+00



1
  VOLUMETRIC BUDGET FOR ENTIRE MODEL AT END OF TIME STEP    1, STRESS PERIOD   7
  ------------------------------------------------------------------------------

     CUMULATIVE VOLUMES      L**3       RATES FOR THIS TIME STEP      L**3/T
     ------------------                 ------------------------

           IN:                                      IN:
           ---                                      ---
             STORAGE =    20695190.0000               STORAGE =        3803.7097
       CONSTANT HEAD =   734419200.0000         CONSTANT HEAD =     1170387.6250
               WELLS =           0.0000                 WELLS =           0.0000
            RECHARGE =    15097200.0000              RECHARGE =           0.0000
      STREAM LEAKAGE =           0.0000        STREAM LEAKAGE =           0.0000

            TOTAL IN =   770211584.0000              TOTAL IN =     1174191.3750

          OUT:                                     OUT:
          ----                                     ----
             STORAGE =      632604.8750               STORAGE =         421.2693
       CONSTANT HEAD =           0.0000         CONSTANT HEAD =           0.0000
               WELLS =    35891660.0000                 WELLS =       62314.6953
            RECHARGE =           0.0000              RECHARGE =           0.0000
      STREAM LEAKAGE =   733687296.0000        STREAM LEAKAGE =     1111454.7500

           TOTAL OUT =   770211520.0000             TOTAL OUT =     1174190.7500

            IN - OUT =          64.0000              IN - OUT =           0.6250

 PERCENT DISCREPANCY =           0.00     PERCENT DISCREPANCY =           0.00






         TIME SUMMARY AT END OF TIME STEP    1 IN STRESS PERIOD    7
                    SECONDS     MINUTES      HOURS       DAYS        YEARS
                    -----------------------------------------------------------
   TIME STEP LENGTH 7.86240E+06 1.31040E+05  2184.0      91.000     0.24914    
 STRESS PERIOD TIME 7.86240E+06 1.31040E+05  2184.0      91.000     0.24914    
         TOTAL TIME 5.52096E+07 9.20160E+05  15336.      639.00      1.7495    
1
1
                            STRESS PERIOD NO.    8, LENGTH =   91.00000    
                            -----------------------------------------------

                              NUMBER OF TIME STEPS =     1

                               MULTIPLIER FOR DELT =     1.500

                            INITIAL TIME STEP SIZE =   91.00000    

 WELL NO.  LAYER   ROW   COL   STRESS RATE         
 --------------------------------------------------
      1      1     12     11       0.000    
      2      1     16     17     -0.3088E+05
      3      1     11     22     -0.3000E+05
      4      1     14     25      -7477.    

      4 WELLS

                 RECHARGE =  1.000000E-03

 REUSING STREAM SEGMENT DATA FROM LAST STRESS PERIOD
 
 SOLVING FOR HEAD 


     5 CALLS TO PCG ROUTINE FOR TIME STEP   1 IN STRESS PERIOD    8
    17 TOTAL ITERATIONS

 HEAD/DRAWDOWN PRINTOUT FLAG = 1     TOTAL BUDGET PRINTOUT FLAG = 1
 CELL-BY-CELL FLOW TERM FLAG = 1

 OUTPUT FLAGS FOR ALL LAYERS ARE THE SAME:
   HEAD    DRAWDOWN  HEAD  DRAWDOWN
 PRINTOUT  PRINTOUT  SAVE    SAVE
 ----------------------------------
     0         0       0       0



 STREAM LISTING     PERIOD      8   STEP        1

 LAYER ROW COL. STREAM  RCH.  FLOW INTO     FLOW TO   FLOW OUT OF   OVRLND.     DIRECT     STREAM       STREAM     STREAM     STREAM   STREAMBED  STREAMBED
                SEG.NO.  NO.  STRM. RCH.    AQUIFER    STRM. RCH.    RUNOFF     PRECIP       ET          HEAD       DEPTH      WIDTH   CONDCTNC.   GRADIENT

   1   13    1     1     1    1.0000E+05 -2.7868E+04   1.2787E+05  0.000E+00  0.000E+00  0.000E+00  4.84178E+01  1.564E-01  2.000E+01  2.000E+04 -1.393E+00
   1   13    2     1     2    1.2787E+05 -3.7614E+04   1.6548E+05  0.000E+00  0.000E+00  0.000E+00  4.79661E+01  1.820E-01  2.000E+01  2.000E+04 -1.881E+00
   1   14    3     1     3    1.6548E+05 -3.3086E+04   1.9857E+05  0.000E+00  0.000E+00  0.000E+00  4.75140E+01  2.072E-01  2.000E+01  2.000E+04 -1.654E+00
   1   15    4     1     4    1.9857E+05 -3.2312E+04   2.3088E+05  0.000E+00  0.000E+00  0.000E+00  4.70583E+01  2.288E-01  2.000E+01  2.000E+04 -1.616E+00
   1   16    5     1     5    2.3088E+05 -3.3810E+04   2.6469E+05  0.000E+00  0.000E+00  0.000E+00  4.66016E+01  2.493E-01  2.000E+01  2.000E+04 -1.691E+00
   1   16    6     1     6    2.6469E+05 -2.9523E+04   2.9421E+05  0.000E+00  0.000E+00  0.000E+00  4.61430E+01  2.680E-01  2.000E+01  2.000E+04 -1.476E+00
   1   16    7     1     7    2.9421E+05 -2.9319E+04   3.2353E+05  0.000E+00  0.000E+00  0.000E+00  4.56823E+01  2.846E-01  2.000E+01  2.000E+04 -1.466E+00
   1   16    8     1     8    3.2353E+05 -2.9461E+04   3.5299E+05  0.000E+00  0.000E+00  0.000E+00  4.52210E+01  3.005E-01  2.000E+01  2.000E+04 -1.473E+00
   1   16    9     1     9    3.5299E+05 -2.9474E+04   3.8247E+05  0.000E+00  0.000E+00  0.000E+00  4.47591E+01  3.160E-01  2.000E+01  2.000E+04 -1.474E+00
   1   16   10     1    10    3.8247E+05 -2.9380E+04   4.1185E+05  0.000E+00  0.000E+00  0.000E+00  4.42968E+01  3.309E-01  2.000E+01  2.000E+04 -1.469E+00
   1   16   11     1    11    4.1185E+05 -2.9724E+04   4.4157E+05  0.000E+00  0.000E+00  0.000E+00  4.38341E+01  3.455E-01  2.000E+01  2.000E+04 -1.486E+00
   1   16   12     1    12    4.4157E+05 -3.4441E+04   4.7601E+05  0.000E+00  0.000E+00  0.000E+00  4.33722E+01  3.608E-01  2.000E+01  2.000E+04 -1.722E+00
   1   15   13     1    13    4.7601E+05 -3.2539E+04   5.0855E+05  0.000E+00  0.000E+00  0.000E+00  4.29105E+01  3.764E-01  2.000E+01  2.000E+04 -1.627E+00
   1   14   14     1    14    5.0855E+05 -3.2640E+04   5.4119E+05  0.000E+00  0.000E+00  0.000E+00  4.24480E+01  3.912E-01  2.000E+01  2.000E+04 -1.632E+00
   1   13   15     1    15    5.4119E+05 -3.4942E+04   5.7613E+05  0.000E+00  0.000E+00  0.000E+00  4.19856E+01  4.061E-01  2.000E+01  2.000E+04 -1.747E+00
   1   12   16     1    16    5.7613E+05 -4.1726E+04   6.1786E+05  0.000E+00  0.000E+00  0.000E+00  4.15249E+01  4.226E-01  2.000E+01  2.000E+04 -2.086E+00
   1   12   17     1    17    6.1786E+05 -3.1900E+04   6.4976E+05  0.000E+00  0.000E+00  0.000E+00  4.10630E+01  4.380E-01  2.000E+01  2.000E+04 -1.595E+00
   1   12   18     1    18    6.4976E+05 -2.9933E+04   6.7969E+05  0.000E+00  0.000E+00  0.000E+00  4.05985E+01  4.507E-01  2.000E+01  2.000E+04 -1.497E+00
   1   12   19     1    19    6.7969E+05 -3.2907E+04   7.1260E+05  0.000E+00  0.000E+00  0.000E+00  4.01338E+01  4.634E-01  2.000E+01  2.000E+04 -1.645E+00
   1   13   20     1    20    7.1260E+05 -2.2527E+04   7.3513E+05  0.000E+00  0.000E+00  0.000E+00  3.96676E+01  4.744E-01  2.000E+01  2.000E+04 -1.126E+00
   1   14   21     1    21    7.3513E+05 -1.6620E+04   7.5175E+05  0.000E+00  0.000E+00  0.000E+00  3.91979E+01  4.820E-01  2.000E+01  2.000E+04 -8.310E-01
   1   14   22     1    22    7.5175E+05 -4.9756E+02   7.5225E+05  0.000E+00  0.000E+00  0.000E+00  3.87240E+01  4.853E-01  2.000E+01  2.000E+04 -2.488E-02
   1    9   30     2     1    5.0000E+04 -2.6341E+04   7.6341E+04  0.000E+00  0.000E+00  0.000E+00  4.02583E+01  1.333E-01  2.000E+01  2.000E+04 -1.317E+00
   1    9   29     2     2    7.6341E+04 -2.8759E+04   1.0510E+05  0.000E+00  0.000E+00  0.000E+00  4.00407E+01  1.657E-01  2.000E+01  2.000E+04 -1.438E+00
   1    9   28     2     3    1.0510E+05 -3.2911E+04   1.3801E+05  0.000E+00  0.000E+00  0.000E+00  3.98224E+01  1.974E-01  2.000E+01  2.000E+04 -1.646E+00
   1    9   27     2     4    1.3801E+05 -4.6602E+04   1.8461E+05  0.000E+00  0.000E+00  0.000E+00  3.96090E+01  2.340E-01  2.000E+01  2.000E+04 -2.330E+00
   1   10   26     2     5    1.8461E+05 -3.1841E+04   2.1646E+05  0.000E+00  0.000E+00  0.000E+00  3.93916E+01  2.666E-01  2.000E+01  2.000E+04 -1.592E+00
   1   11   25     2     6    2.1646E+05 -2.2079E+04   2.3853E+05  0.000E+00  0.000E+00  0.000E+00  3.91626E+01  2.876E-01  2.000E+01  2.000E+04 -1.104E+00
   1   12   24     2     7    2.3853E+05 -1.4048E+04   2.5258E+05  0.000E+00  0.000E+00  0.000E+00  3.89261E+01  3.011E-01  2.000E+01  2.000E+04 -7.024E-01
   1   13   23     2     8    2.5258E+05 -9.0839E+03   2.6167E+05  0.000E+00  0.000E+00  0.000E+00  3.86845E+01  3.095E-01  2.000E+01  2.000E+04 -4.542E-01
   1   14   22     2     9    2.6167E+05 -6.1777E+03   2.6784E+05  0.000E+00  0.000E+00  0.000E+00  3.84400E+01  3.150E-01  2.000E+01  2.000E+04 -3.089E-01
   1   14   22     3     1    1.0201E+06 -1.4154E+04   1.0342E+06  0.000E+00  0.000E+00  0.000E+00  3.80412E+01  4.856E-01  2.000E+01  2.000E+04 -7.077E-01
   1   15   23     3     2    1.0342E+06 -2.2216E+04   1.0565E+06  0.000E+00  0.000E+00  0.000E+00  3.71574E+01  4.907E-01  2.000E+01  2.000E+04 -1.111E+00
   1   15   24     3     3    1.0565E+06 -1.8289E+04   1.0747E+06  0.000E+00  0.000E+00  0.000E+00  3.62742E+01  4.964E-01  2.000E+01  2.000E+04 -9.145E-01
   1   15   25     3     4    1.0747E+06 -1.7210E+04   1.0920E+06  0.000E+00  0.000E+00  0.000E+00  3.53903E+01  5.014E-01  2.000E+01  2.000E+04 -8.605E-01
   1   15   26     3     5    1.0920E+06 -2.0833E+04   1.1128E+06  0.000E+00  0.000E+00  0.000E+00  3.45066E+01  5.066E-01  2.000E+01  2.000E+04 -1.042E+00
   1   16   27     3     6    1.1128E+06 -2.8739E+04   1.1415E+06  0.000E+00  0.000E+00  0.000E+00  3.36246E+01  5.134E-01  2.000E+01  2.000E+04 -1.437E+00
   1   17   28     3     7    1.1415E+06 -3.6042E+04   1.1776E+06  0.000E+00  0.000E+00  0.000E+00  3.27445E+01  5.222E-01  2.000E+01  2.000E+04 -1.802E+00
   1   18   29     3     8    1.1776E+06 -4.7168E+04   1.2247E+06  0.000E+00  0.000E+00  0.000E+00  3.18667E+01  5.334E-01  2.000E+01  2.000E+04 -2.358E+00
   1   18   30     3     9    1.2247E+06 -4.3647E+04   1.2684E+06  0.000E+00  0.000E+00  0.000E+00  3.09899E+01  5.454E-01  2.000E+01  2.000E+04 -2.182E+00



1
  VOLUMETRIC BUDGET FOR ENTIRE MODEL AT END OF TIME STEP    1, STRESS PERIOD   8
  ------------------------------------------------------------------------------

     CUMULATIVE VOLUMES      L**3       RATES FOR THIS TIME STEP      L**3/T
     ------------------                 ------------------------

           IN:                                      IN:
           ---                                      ---
             STORAGE =    20698680.0000               STORAGE =          38.3605
       CONSTANT HEAD =   839998784.0000         CONSTANT HEAD =     1160215.5000
               WELLS =           0.0000                 WELLS =           0.0000
            RECHARGE =    17608800.0000              RECHARGE =       27600.0000
      STREAM LEAKAGE =           0.0000        STREAM LEAKAGE =           0.0000

            TOTAL IN =   878306240.0000              TOTAL IN =     1187853.8750

          OUT:                                     OUT:
          ----                                     ----
             STORAGE =      733537.6875               STORAGE =        1109.1516
       CONSTANT HEAD =           0.0000         CONSTANT HEAD =           0.0000
               WELLS =    42112044.0000                 WELLS =       68355.8828
            RECHARGE =           0.0000              RECHARGE =           0.0000
      STREAM LEAKAGE =   835460544.0000        STREAM LEAKAGE =     1118387.5000

           TOTAL OUT =   878306176.0000             TOTAL OUT =     1187852.5000

            IN - OUT =          64.0000              IN - OUT =           1.3750

 PERCENT DISCREPANCY =           0.00     PERCENT DISCREPANCY =           0.00






         TIME SUMMARY AT END OF TIME STEP    1 IN STRESS PERIOD    8
                    SECONDS     MINUTES      HOURS       DAYS        YEARS
                    -----------------------------------------------------------
   TIME STEP LENGTH 7.86240E+06 1.31040E+05  2184.0      91.000     0.24914    
 STRESS PERIOD TIME 7.86240E+06 1.31040E+05  2184.0      91.000     0.24914    
         TOTAL TIME 6.30720E+07 1.05120E+06  17520.      730.00      1.9986    
1
1
                            STRESS PERIOD NO.    9, LENGTH =   92.00000    
                            -----------------------------------------------

                              NUMBER OF TIME STEPS =     1

                               MULTIPLIER FOR DELT =     1.500

                            INITIAL TIME STEP SIZE =   92.00000    

 WELL NO.  LAYER   ROW   COL   STRESS RATE         
 --------------------------------------------------
      1      1     12     11       0.000    
      2      1     16     17     -0.5000E+05
      3      1     11     22       0.000    
      4      1     14     25       0.000    

      4 WELLS

                 RECHARGE =  5.000000E-04

 REUSING STREAM SEGMENT DATA FROM LAST STRESS PERIOD
 
 SOLVING FOR HEAD 


     4 CALLS TO PCG ROUTINE FOR TIME STEP   1 IN STRESS PERIOD    9
    16 TOTAL ITERATIONS

 HEAD/DRAWDOWN PRINTOUT FLAG = 1     TOTAL BUDGET PRINTOUT FLAG = 1
 CELL-BY-CELL FLOW TERM FLAG = 1

 OUTPUT FLAGS FOR ALL LAYERS ARE THE SAME:
   HEAD    DRAWDOWN  HEAD  DRAWDOWN
 PRINTOUT  PRINTOUT  SAVE    SAVE
 ----------------------------------
     0         0       0       0



 STREAM LISTING     PERIOD      9   STEP        1

 LAYER ROW COL. STREAM  RCH.  FLOW INTO     FLOW TO   FLOW OUT OF   OVRLND.     DIRECT     STREAM       STREAM     STREAM     STREAM   STREAMBED  STREAMBED
                SEG.NO.  NO.  STRM. RCH.    AQUIFER    STRM. RCH.    RUNOFF     PRECIP       ET          HEAD       DEPTH      WIDTH   CONDCTNC.   GRADIENT

   1   13    1     1     1    1.0000E+05 -2.7670E+04   1.2767E+05  0.000E+00  0.000E+00  0.000E+00  4.84177E+01  1.563E-01  2.000E+01  2.000E+04 -1.384E+00
   1   13    2     1     2    1.2767E+05 -3.7379E+04   1.6505E+05  0.000E+00  0.000E+00  0.000E+00  4.79659E+01  1.818E-01  2.000E+01  2.000E+04 -1.869E+00
   1   14    3     1     3    1.6505E+05 -3.2848E+04   1.9790E+05  0.000E+00  0.000E+00  0.000E+00  4.75136E+01  2.068E-01  2.000E+01  2.000E+04 -1.642E+00
   1   15    4     1     4    1.9790E+05 -3.2073E+04   2.2997E+05  0.000E+00  0.000E+00  0.000E+00  4.70578E+01  2.283E-01  2.000E+01  2.000E+04 -1.604E+00
   1   16    5     1     5    2.2997E+05 -3.3575E+04   2.6355E+05  0.000E+00  0.000E+00  0.000E+00  4.66010E+01  2.487E-01  2.000E+01  2.000E+04 -1.679E+00
   1   16    6     1     6    2.6355E+05 -2.9309E+04   2.9285E+05  0.000E+00  0.000E+00  0.000E+00  4.61423E+01  2.673E-01  2.000E+01  2.000E+04 -1.465E+00
   1   16    7     1     7    2.9285E+05 -2.9092E+04   3.2195E+05  0.000E+00  0.000E+00  0.000E+00  4.56815E+01  2.838E-01  2.000E+01  2.000E+04 -1.455E+00
   1   16    8     1     8    3.2195E+05 -2.9207E+04   3.5115E+05  0.000E+00  0.000E+00  0.000E+00  4.52201E+01  2.996E-01  2.000E+01  2.000E+04 -1.460E+00
   1   16    9     1     9    3.5115E+05 -2.9176E+04   3.8033E+05  0.000E+00  0.000E+00  0.000E+00  4.47581E+01  3.149E-01  2.000E+01  2.000E+04 -1.459E+00
   1   16   10     1    10    3.8033E+05 -2.9005E+04   4.0933E+05  0.000E+00  0.000E+00  0.000E+00  4.42956E+01  3.297E-01  2.000E+01  2.000E+04 -1.450E+00
   1   16   11     1    11    4.0933E+05 -2.9185E+04   4.3852E+05  0.000E+00  0.000E+00  0.000E+00  4.38327E+01  3.441E-01  2.000E+01  2.000E+04 -1.459E+00
   1   16   12     1    12    4.3852E+05 -3.3381E+04   4.7190E+05  0.000E+00  0.000E+00  0.000E+00  4.33705E+01  3.591E-01  2.000E+01  2.000E+04 -1.669E+00
   1   15   13     1    13    4.7190E+05 -3.1118E+04   5.0302E+05  0.000E+00  0.000E+00  0.000E+00  4.29083E+01  3.742E-01  2.000E+01  2.000E+04 -1.556E+00
   1   14   14     1    14    5.0302E+05 -3.1000E+04   5.3402E+05  0.000E+00  0.000E+00  0.000E+00  4.24451E+01  3.883E-01  2.000E+01  2.000E+04 -1.550E+00
   1   13   15     1    15    5.3402E+05 -3.3518E+04   5.6754E+05  0.000E+00  0.000E+00  0.000E+00  4.19822E+01  4.026E-01  2.000E+01  2.000E+04 -1.676E+00
   1   12   16     1    16    5.6754E+05 -4.1129E+04   6.0866E+05  0.000E+00  0.000E+00  0.000E+00  4.15211E+01  4.188E-01  2.000E+01  2.000E+04 -2.056E+00
   1   12   17     1    17    6.0866E+05 -3.1404E+04   6.4007E+05  0.000E+00  0.000E+00  0.000E+00  4.10591E+01  4.341E-01  2.000E+01  2.000E+04 -1.570E+00
   1   12   18     1    18    6.4007E+05 -2.9976E+04   6.7004E+05  0.000E+00  0.000E+00  0.000E+00  4.05945E+01  4.468E-01  2.000E+01  2.000E+04 -1.499E+00
   1   12   19     1    19    6.7004E+05 -3.4524E+04   7.0457E+05  0.000E+00  0.000E+00  0.000E+00  4.01303E+01  4.598E-01  2.000E+01  2.000E+04 -1.726E+00
   1   13   20     1    20    7.0457E+05 -2.3811E+04   7.2838E+05  0.000E+00  0.000E+00  0.000E+00  3.96646E+01  4.715E-01  2.000E+01  2.000E+04 -1.191E+00
   1   14   21     1    21    7.2838E+05 -1.6803E+04   7.4518E+05  0.000E+00  0.000E+00  0.000E+00  3.91953E+01  4.794E-01  2.000E+01  2.000E+04 -8.401E-01
   1   14   22     1    22    7.4518E+05 -1.1910E+03   7.4637E+05  0.000E+00  0.000E+00  0.000E+00  3.87216E+01  4.829E-01  2.000E+01  2.000E+04 -5.955E-02
   1    9   30     2     1    5.0000E+04 -2.6456E+04   7.6456E+04  0.000E+00  0.000E+00  0.000E+00  4.02584E+01  1.334E-01  2.000E+01  2.000E+04 -1.323E+00
   1    9   29     2     2    7.6456E+04 -2.8921E+04   1.0538E+05  0.000E+00  0.000E+00  0.000E+00  4.00409E+01  1.659E-01  2.000E+01  2.000E+04 -1.446E+00
   1    9   28     2     3    1.0538E+05 -3.3199E+04   1.3858E+05  0.000E+00  0.000E+00  0.000E+00  3.98228E+01  1.979E-01  2.000E+01  2.000E+04 -1.660E+00
   1    9   27     2     4    1.3858E+05 -4.7284E+04   1.8586E+05  0.000E+00  0.000E+00  0.000E+00  3.96098E+01  2.348E-01  2.000E+01  2.000E+04 -2.364E+00
   1   10   26     2     5    1.8586E+05 -3.3224E+04   2.1908E+05  0.000E+00  0.000E+00  0.000E+00  3.93932E+01  2.682E-01  2.000E+01  2.000E+04 -1.661E+00
   1   11   25     2     6    2.1908E+05 -2.4835E+04   2.4392E+05  0.000E+00  0.000E+00  0.000E+00  3.91656E+01  2.906E-01  2.000E+01  2.000E+04 -1.242E+00
   1   12   24     2     7    2.4392E+05 -1.8204E+04   2.6212E+05  0.000E+00  0.000E+00  0.000E+00  3.89315E+01  3.065E-01  2.000E+01  2.000E+04 -9.102E-01
   1   13   23     2     8    2.6212E+05 -1.2718E+04   2.7484E+05  0.000E+00  0.000E+00  0.000E+00  3.86926E+01  3.176E-01  2.000E+01  2.000E+04 -6.359E-01
   1   14   22     2     9    2.7484E+05 -6.6335E+03   2.8147E+05  0.000E+00  0.000E+00  0.000E+00  3.84494E+01  3.244E-01  2.000E+01  2.000E+04 -3.317E-01
   1   14   22     3     1    1.0278E+06 -1.4754E+04   1.0426E+06  0.000E+00  0.000E+00  0.000E+00  3.80434E+01  4.879E-01  2.000E+01  2.000E+04 -7.377E-01
   1   15   23     3     2    1.0426E+06 -2.2197E+04   1.0648E+06  0.000E+00  0.000E+00  0.000E+00  3.71598E+01  4.931E-01  2.000E+01  2.000E+04 -1.110E+00
   1   15   24     3     3    1.0648E+06 -1.9010E+04   1.0838E+06  0.000E+00  0.000E+00  0.000E+00  3.62766E+01  4.989E-01  2.000E+01  2.000E+04 -9.505E-01
   1   15   25     3     4    1.0838E+06 -1.8882E+04   1.1027E+06  0.000E+00  0.000E+00  0.000E+00  3.53930E+01  5.041E-01  2.000E+01  2.000E+04 -9.441E-01
   1   15   26     3     5    1.1027E+06 -2.1771E+04   1.1245E+06  0.000E+00  0.000E+00  0.000E+00  3.45097E+01  5.097E-01  2.000E+01  2.000E+04 -1.089E+00
   1   16   27     3     6    1.1245E+06 -2.8858E+04   1.1533E+06  0.000E+00  0.000E+00  0.000E+00  3.36278E+01  5.166E-01  2.000E+01  2.000E+04 -1.443E+00
   1   17   28     3     7    1.1533E+06 -3.5957E+04   1.1893E+06  0.000E+00  0.000E+00  0.000E+00  3.27476E+01  5.254E-01  2.000E+01  2.000E+04 -1.798E+00
   1   18   29     3     8    1.1893E+06 -4.7008E+04   1.2363E+06  0.000E+00  0.000E+00  0.000E+00  3.18698E+01  5.365E-01  2.000E+01  2.000E+04 -2.350E+00
   1   18   30     3     9    1.2363E+06 -4.3540E+04   1.2798E+06  0.000E+00  0.000E+00  0.000E+00  3.09929E+01  5.484E-01  2.000E+01  2.000E+04 -2.177E+00



1
  VOLUMETRIC BUDGET FOR ENTIRE MODEL AT END OF TIME STEP    1, STRESS PERIOD   9
  ------------------------------------------------------------------------------

     CUMULATIVE VOLUMES      L**3       RATES FOR THIS TIME STEP      L**3/T
     ------------------                 ------------------------

           IN:                                      IN:
           ---                                      ---
             STORAGE =    20812826.0000               STORAGE =        1240.7134
       CONSTANT HEAD =   947236800.0000         CONSTANT HEAD =     1165630.8750
               WELLS =           0.0000                 WELLS =           0.0000
            RECHARGE =    18878400.0000              RECHARGE =       13800.0000
      STREAM LEAKAGE =           0.0000        STREAM LEAKAGE =           0.0000

            TOTAL IN =   986928000.0000              TOTAL IN =     1180671.6250

          OUT:                                     OUT:
          ----                                     ----
             STORAGE =      811588.0000               STORAGE =         848.3729
       CONSTANT HEAD =           0.0000         CONSTANT HEAD =           0.0000
               WELLS =    46712044.0000                 WELLS =       50000.0000
            RECHARGE =           0.0000              RECHARGE =           0.0000
      STREAM LEAKAGE =   939404416.0000        STREAM LEAKAGE =     1129825.0000

           TOTAL OUT =   986928064.0000             TOTAL OUT =     1180673.3750

            IN - OUT =         -64.0000              IN - OUT =          -1.7500

 PERCENT DISCREPANCY =          -0.00     PERCENT DISCREPANCY =          -0.00






         TIME SUMMARY AT END OF TIME STEP    1 IN STRESS PERIOD    9
                    SECONDS     MINUTES      HOURS       DAYS        YEARS
                    -----------------------------------------------------------
   TIME STEP LENGTH 7.94880E+06 1.32480E+05  2208.0      92.000     0.25188    
 STRESS PERIOD TIME 7.94880E+06 1.32480E+05  2208.0      92.000     0.25188    
         TOTAL TIME 7.10208E+07 1.18368E+06  19728.      822.00      2.2505    
1
1
                            STRESS PERIOD NO.   10, LENGTH =   91.00000    
                            -----------------------------------------------

                              NUMBER OF TIME STEPS =     1

                               MULTIPLIER FOR DELT =     1.500

                            INITIAL TIME STEP SIZE =   91.00000    

 WELL NO.  LAYER   ROW   COL   STRESS RATE         
 --------------------------------------------------
      1      1     12     11       0.000    
      2      1     16     17       0.000    
      3      1     11     22       0.000    
      4      1     14     25     -0.5000E+05

      4 WELLS

                 RECHARGE =  2.000000E-03

 REUSING STREAM SEGMENT DATA FROM LAST STRESS PERIOD
 
 SOLVING FOR HEAD 


     5 CALLS TO PCG ROUTINE FOR TIME STEP   1 IN STRESS PERIOD   10
    19 TOTAL ITERATIONS

 HEAD/DRAWDOWN PRINTOUT FLAG = 1     TOTAL BUDGET PRINTOUT FLAG = 1
 CELL-BY-CELL FLOW TERM FLAG = 1

 OUTPUT FLAGS FOR ALL LAYERS ARE THE SAME:
   HEAD    DRAWDOWN  HEAD  DRAWDOWN
 PRINTOUT  PRINTOUT  SAVE    SAVE
 ----------------------------------
     0         0       0       0



 STREAM LISTING     PERIOD     10   STEP        1

 LAYER ROW COL. STREAM  RCH.  FLOW INTO     FLOW TO   FLOW OUT OF   OVRLND.     DIRECT     STREAM       STREAM     STREAM     STREAM   STREAMBED  STREAMBED
                SEG.NO.  NO.  STRM. RCH.    AQUIFER    STRM. RCH.    RUNOFF     PRECIP       ET          HEAD       DEPTH      WIDTH   CONDCTNC.   GRADIENT

   1   13    1     1     1    1.0000E+05 -2.8357E+04   1.2836E+05  0.000E+00  0.000E+00  0.000E+00  4.84180E+01  1.566E-01  2.000E+01  2.000E+04 -1.418E+00
   1   13    2     1     2    1.2836E+05 -3.8205E+04   1.6656E+05  0.000E+00  0.000E+00  0.000E+00  4.79667E+01  1.826E-01  2.000E+01  2.000E+04 -1.910E+00
   1   14    3     1     3    1.6656E+05 -3.3667E+04   2.0023E+05  0.000E+00  0.000E+00  0.000E+00  4.75150E+01  2.081E-01  2.000E+01  2.000E+04 -1.683E+00
   1   15    4     1     4    2.0023E+05 -3.2879E+04   2.3311E+05  0.000E+00  0.000E+00  0.000E+00  4.70596E+01  2.300E-01  2.000E+01  2.000E+04 -1.644E+00
   1   16    5     1     5    2.3311E+05 -3.4339E+04   2.6745E+05  0.000E+00  0.000E+00  0.000E+00  4.66031E+01  2.508E-01  2.000E+01  2.000E+04 -1.717E+00
   1   16    6     1     6    2.6745E+05 -3.0008E+04   2.9746E+05  0.000E+00  0.000E+00  0.000E+00  4.61447E+01  2.697E-01  2.000E+01  2.000E+04 -1.500E+00
   1   16    7     1     7    2.9746E+05 -2.9833E+04   3.2729E+05  0.000E+00  0.000E+00  0.000E+00  4.56842E+01  2.865E-01  2.000E+01  2.000E+04 -1.492E+00
   1   16    8     1     8    3.2729E+05 -3.0026E+04   3.5732E+05  0.000E+00  0.000E+00  0.000E+00  4.52231E+01  3.027E-01  2.000E+01  2.000E+04 -1.501E+00
   1   16    9     1     9    3.5732E+05 -3.0116E+04   3.8743E+05  0.000E+00  0.000E+00  0.000E+00  4.47615E+01  3.184E-01  2.000E+01  2.000E+04 -1.506E+00
   1   16   10     1    10    3.8743E+05 -3.0151E+04   4.1758E+05  0.000E+00  0.000E+00  0.000E+00  4.42995E+01  3.336E-01  2.000E+01  2.000E+04 -1.508E+00
   1   16   11     1    11    4.1758E+05 -3.0767E+04   4.4835E+05  0.000E+00  0.000E+00  0.000E+00  4.38371E+01  3.485E-01  2.000E+01  2.000E+04 -1.538E+00
   1   16   12     1    12    4.4835E+05 -3.6351E+04   4.8470E+05  0.000E+00  0.000E+00  0.000E+00  4.33758E+01  3.645E-01  2.000E+01  2.000E+04 -1.818E+00
   1   15   13     1    13    4.8470E+05 -3.5140E+04   5.1984E+05  0.000E+00  0.000E+00  0.000E+00  4.29151E+01  3.810E-01  2.000E+01  2.000E+04 -1.757E+00
   1   14   14     1    14    5.1984E+05 -3.5741E+04   5.5558E+05  0.000E+00  0.000E+00  0.000E+00  4.24537E+01  3.969E-01  2.000E+01  2.000E+04 -1.787E+00
   1   13   15     1    15    5.5558E+05 -3.7968E+04   5.9355E+05  0.000E+00  0.000E+00  0.000E+00  4.19925E+01  4.130E-01  2.000E+01  2.000E+04 -1.898E+00
   1   12   16     1    16    5.9355E+05 -4.4019E+04   6.3757E+05  0.000E+00  0.000E+00  0.000E+00  4.15327E+01  4.304E-01  2.000E+01  2.000E+04 -2.201E+00
   1   12   17     1    17    6.3757E+05 -3.4420E+04   6.7199E+05  0.000E+00  0.000E+00  0.000E+00  4.10717E+01  4.467E-01  2.000E+01  2.000E+04 -1.721E+00
   1   12   18     1    18    6.7199E+05 -3.2753E+04   7.0474E+05  0.000E+00  0.000E+00  0.000E+00  4.06080E+01  4.603E-01  2.000E+01  2.000E+04 -1.638E+00
   1   12   19     1    19    7.0474E+05 -3.6803E+04   7.4154E+05  0.000E+00  0.000E+00  0.000E+00  4.01445E+01  4.741E-01  2.000E+01  2.000E+04 -1.840E+00
   1   13   20     1    20    7.4154E+05 -2.6942E+04   7.6849E+05  0.000E+00  0.000E+00  0.000E+00  3.96797E+01  4.865E-01  2.000E+01  2.000E+04 -1.347E+00
   1   14   21     1    21    7.6849E+05 -1.9675E+04   7.8816E+05  0.000E+00  0.000E+00  0.000E+00  3.92114E+01  4.955E-01  2.000E+01  2.000E+04 -9.838E-01
   1   14   22     1    22    7.8816E+05 -1.0532E+03   7.8921E+05  0.000E+00  0.000E+00  0.000E+00  3.87381E+01  4.994E-01  2.000E+01  2.000E+04 -5.266E-02
   1    9   30     2     1    5.0000E+04 -2.6426E+04   7.6426E+04  0.000E+00  0.000E+00  0.000E+00  4.02584E+01  1.334E-01  2.000E+01  2.000E+04 -1.321E+00
   1    9   29     2     2    7.6426E+04 -2.8870E+04   1.0530E+05  0.000E+00  0.000E+00  0.000E+00  4.00408E+01  1.658E-01  2.000E+01  2.000E+04 -1.444E+00
   1    9   28     2     3    1.0530E+05 -3.3134E+04   1.3843E+05  0.000E+00  0.000E+00  0.000E+00  3.98227E+01  1.977E-01  2.000E+01  2.000E+04 -1.657E+00
   1    9   27     2     4    1.3843E+05 -4.7293E+04   1.8572E+05  0.000E+00  0.000E+00  0.000E+00  3.96096E+01  2.346E-01  2.000E+01  2.000E+04 -2.365E+00
   1   10   26     2     5    1.8572E+05 -3.2477E+04   2.1820E+05  0.000E+00  0.000E+00  0.000E+00  3.93928E+01  2.678E-01  2.000E+01  2.000E+04 -1.624E+00
   1   11   25     2     6    2.1820E+05 -2.2624E+04   2.4082E+05  0.000E+00  0.000E+00  0.000E+00  3.91641E+01  2.891E-01  2.000E+01  2.000E+04 -1.131E+00
   1   12   24     2     7    2.4082E+05 -1.4553E+04   2.5538E+05  0.000E+00  0.000E+00  0.000E+00  3.89279E+01  3.029E-01  2.000E+01  2.000E+04 -7.277E-01
   1   13   23     2     8    2.5538E+05 -9.8764E+03   2.6525E+05  0.000E+00  0.000E+00  0.000E+00  3.86868E+01  3.118E-01  2.000E+01  2.000E+04 -4.938E-01
   1   14   22     2     9    2.6525E+05 -6.9582E+03   2.7221E+05  0.000E+00  0.000E+00  0.000E+00  3.84428E+01  3.178E-01  2.000E+01  2.000E+04 -3.479E-01
   1   14   22     3     1    1.0614E+06 -1.4757E+04   1.0762E+06  0.000E+00  0.000E+00  0.000E+00  3.80529E+01  4.973E-01  2.000E+01  2.000E+04 -7.378E-01
   1   15   23     3     2    1.0762E+06 -2.1820E+04   1.0980E+06  0.000E+00  0.000E+00  0.000E+00  3.71691E+01  5.024E-01  2.000E+01  2.000E+04 -1.091E+00
   1   15   24     3     3    1.0980E+06 -1.4490E+04   1.1125E+06  0.000E+00  0.000E+00  0.000E+00  3.62852E+01  5.074E-01  2.000E+01  2.000E+04 -7.245E-01
   1   15   25     3     4    1.1125E+06 -8.0402E+03   1.1205E+06  0.000E+00  0.000E+00  0.000E+00  3.53994E+01  5.105E-01  2.000E+01  2.000E+04 -4.020E-01
   1   15   26     3     5    1.1205E+06 -1.5794E+04   1.1363E+06  0.000E+00  0.000E+00  0.000E+00  3.45138E+01  5.138E-01  2.000E+01  2.000E+04 -7.897E-01
   1   16   27     3     6    1.1363E+06 -2.7532E+04   1.1639E+06  0.000E+00  0.000E+00  0.000E+00  3.36308E+01  5.197E-01  2.000E+01  2.000E+04 -1.377E+00
   1   17   28     3     7    1.1639E+06 -3.5783E+04   1.1996E+06  0.000E+00  0.000E+00  0.000E+00  3.27504E+01  5.282E-01  2.000E+01  2.000E+04 -1.789E+00
   1   18   29     3     8    1.1996E+06 -4.7279E+04   1.2469E+06  0.000E+00  0.000E+00  0.000E+00  3.18726E+01  5.393E-01  2.000E+01  2.000E+04 -2.364E+00
   1   18   30     3     9    1.2469E+06 -4.3691E+04   1.2906E+06  0.000E+00  0.000E+00  0.000E+00  3.09957E+01  5.512E-01  2.000E+01  2.000E+04 -2.185E+00



1
  VOLUMETRIC BUDGET FOR ENTIRE MODEL AT END OF TIME STEP    1, STRESS PERIOD  10
  ------------------------------------------------------------------------------

     CUMULATIVE VOLUMES      L**3       RATES FOR THIS TIME STEP      L**3/T
     ------------------                 ------------------------

           IN:                                      IN:
           ---                                      ---
             STORAGE =    20852684.0000               STORAGE =         437.9897
       CONSTANT HEAD =  1050911424.0000         CONSTANT HEAD =     1139281.3750
               WELLS =           0.0000                 WELLS =           0.0000
            RECHARGE =    23901600.0000              RECHARGE =       55200.0000
      STREAM LEAKAGE =           0.0000        STREAM LEAKAGE =           0.0000

            TOTAL IN =  1095665792.0000              TOTAL IN =     1194919.3750

          OUT:                                     OUT:
          ----                                     ----
             STORAGE =     1203526.5000               STORAGE =        4307.0156
       CONSTANT HEAD =           0.0000         CONSTANT HEAD =           0.0000
               WELLS =    51262044.0000                 WELLS =       50000.0000
            RECHARGE =           0.0000              RECHARGE =           0.0000
      STREAM LEAKAGE =  1043200064.0000        STREAM LEAKAGE =     1140611.2500

           TOTAL OUT =  1095665664.0000             TOTAL OUT =     1194918.2500

            IN - OUT =         128.0000              IN - OUT =           1.1250

 PERCENT DISCREPANCY =           0.00     PERCENT DISCREPANCY =           0.00






         TIME SUMMARY AT END OF TIME STEP    1 IN STRESS PERIOD   10
                    SECONDS     MINUTES      HOURS       DAYS        YEARS
                    -----------------------------------------------------------
   TIME STEP LENGTH 7.86240E+06 1.31040E+05  2184.0      91.000     0.24914    
 STRESS PERIOD TIME 7.86240E+06 1.31040E+05  2184.0      91.000     0.24914    
         TOTAL TIME 7.88832E+07 1.31472E+06  21912.      913.00      2.4997    
1
1
                            STRESS PERIOD NO.   11, LENGTH =   91.00000    
                            -----------------------------------------------

                              NUMBER OF TIME STEPS =     1

                               MULTIPLIER FOR DELT =     1.500

                            INITIAL TIME STEP SIZE =   91.00000    

 WELL NO.  LAYER   ROW   COL   STRESS RATE         
 --------------------------------------------------
      1      1     12     11       0.000    
      2      1     16     17     -0.3231E+05
      3      1     11     22       0.000    
      4      1     14     25       0.000    

      4 WELLS

                 RECHARGE =   0.00000    

 REUSING STREAM SEGMENT DATA FROM LAST STRESS PERIOD
 
 SOLVING FOR HEAD 


     5 CALLS TO PCG ROUTINE FOR TIME STEP   1 IN STRESS PERIOD   11
    19 TOTAL ITERATIONS

 HEAD/DRAWDOWN PRINTOUT FLAG = 1     TOTAL BUDGET PRINTOUT FLAG = 1
 CELL-BY-CELL FLOW TERM FLAG = 1

 OUTPUT FLAGS FOR ALL LAYERS ARE THE SAME:
   HEAD    DRAWDOWN  HEAD  DRAWDOWN
 PRINTOUT  PRINTOUT  SAVE    SAVE
 ----------------------------------
     0         0       0       0



 STREAM LISTING     PERIOD     11   STEP        1

 LAYER ROW COL. STREAM  RCH.  FLOW INTO     FLOW TO   FLOW OUT OF   OVRLND.     DIRECT     STREAM       STREAM     STREAM     STREAM   STREAMBED  STREAMBED
                SEG.NO.  NO.  STRM. RCH.    AQUIFER    STRM. RCH.    RUNOFF     PRECIP       ET          HEAD       DEPTH      WIDTH   CONDCTNC.   GRADIENT

   1   13    1     1     1    1.0000E+05 -2.7495E+04   1.2750E+05  0.000E+00  0.000E+00  0.000E+00  4.84176E+01  1.563E-01  2.000E+01  2.000E+04 -1.375E+00
   1   13    2     1     2    1.2750E+05 -3.7174E+04   1.6467E+05  0.000E+00  0.000E+00  0.000E+00  4.79657E+01  1.816E-01  2.000E+01  2.000E+04 -1.859E+00
   1   14    3     1     3    1.6467E+05 -3.2649E+04   1.9732E+05  0.000E+00  0.000E+00  0.000E+00  4.75133E+01  2.065E-01  2.000E+01  2.000E+04 -1.632E+00
   1   15    4     1     4    1.9732E+05 -3.1888E+04   2.2920E+05  0.000E+00  0.000E+00  0.000E+00  4.70574E+01  2.279E-01  2.000E+01  2.000E+04 -1.594E+00
   1   16    5     1     5    2.2920E+05 -3.3421E+04   2.6263E+05  0.000E+00  0.000E+00  0.000E+00  4.66005E+01  2.482E-01  2.000E+01  2.000E+04 -1.671E+00
   1   16    6     1     6    2.6263E+05 -2.9191E+04   2.9182E+05  0.000E+00  0.000E+00  0.000E+00  4.61417E+01  2.667E-01  2.000E+01  2.000E+04 -1.460E+00
   1   16    7     1     7    2.9182E+05 -2.8996E+04   3.2081E+05  0.000E+00  0.000E+00  0.000E+00  4.56809E+01  2.832E-01  2.000E+01  2.000E+04 -1.450E+00
   1   16    8     1     8    3.2081E+05 -2.9142E+04   3.4995E+05  0.000E+00  0.000E+00  0.000E+00  4.52194E+01  2.990E-01  2.000E+01  2.000E+04 -1.457E+00
   1   16    9     1     9    3.4995E+05 -2.9159E+04   3.7911E+05  0.000E+00  0.000E+00  0.000E+00  4.47575E+01  3.143E-01  2.000E+01  2.000E+04 -1.458E+00
   1   16   10     1    10    3.7911E+05 -2.9071E+04   4.0818E+05  0.000E+00  0.000E+00  0.000E+00  4.42951E+01  3.291E-01  2.000E+01  2.000E+04 -1.454E+00
   1   16   11     1    11    4.0818E+05 -2.9416E+04   4.3760E+05  0.000E+00  0.000E+00  0.000E+00  4.38322E+01  3.436E-01  2.000E+01  2.000E+04 -1.471E+00
   1   16   12     1    12    4.3760E+05 -3.4082E+04   4.7168E+05  0.000E+00  0.000E+00  0.000E+00  4.33702E+01  3.589E-01  2.000E+01  2.000E+04 -1.704E+00
   1   15   13     1    13    4.7168E+05 -3.2162E+04   5.0384E+05  0.000E+00  0.000E+00  0.000E+00  4.29084E+01  3.743E-01  2.000E+01  2.000E+04 -1.608E+00
   1   14   14     1    14    5.0384E+05 -3.2293E+04   5.3614E+05  0.000E+00  0.000E+00  0.000E+00  4.24458E+01  3.890E-01  2.000E+01  2.000E+04 -1.615E+00
   1   13   15     1    15    5.3614E+05 -3.4706E+04   5.7084E+05  0.000E+00  0.000E+00  0.000E+00  4.19834E+01  4.038E-01  2.000E+01  2.000E+04 -1.735E+00
   1   12   16     1    16    5.7084E+05 -4.1760E+04   6.1260E+05  0.000E+00  0.000E+00  0.000E+00  4.15226E+01  4.203E-01  2.000E+01  2.000E+04 -2.088E+00
   1   12   17     1    17    6.1260E+05 -3.2178E+04   6.4478E+05  0.000E+00  0.000E+00  0.000E+00  4.10609E+01  4.359E-01  2.000E+01  2.000E+04 -1.609E+00
   1   12   18     1    18    6.4478E+05 -3.0697E+04   6.7548E+05  0.000E+00  0.000E+00  0.000E+00  4.05966E+01  4.489E-01  2.000E+01  2.000E+04 -1.535E+00
   1   12   19     1    19    6.7548E+05 -3.5071E+04   7.1055E+05  0.000E+00  0.000E+00  0.000E+00  4.01326E+01  4.621E-01  2.000E+01  2.000E+04 -1.754E+00
   1   13   20     1    20    7.1055E+05 -2.4740E+04   7.3529E+05  0.000E+00  0.000E+00  0.000E+00  3.96672E+01  4.740E-01  2.000E+01  2.000E+04 -1.237E+00
   1   14   21     1    21    7.3529E+05 -1.7723E+04   7.5301E+05  0.000E+00  0.000E+00  0.000E+00  3.91982E+01  4.823E-01  2.000E+01  2.000E+04 -8.861E-01
   1   14   22     1    22    7.5301E+05 -1.3366E+03   7.5435E+05  0.000E+00  0.000E+00  0.000E+00  3.87246E+01  4.860E-01  2.000E+01  2.000E+04 -6.683E-02
   1    9   30     2     1    5.0000E+04 -2.6320E+04   7.6320E+04  0.000E+00  0.000E+00  0.000E+00  4.02583E+01  1.333E-01  2.000E+01  2.000E+04 -1.316E+00
   1    9   29     2     2    7.6320E+04 -2.8788E+04   1.0511E+05  0.000E+00  0.000E+00  0.000E+00  4.00406E+01  1.656E-01  2.000E+01  2.000E+04 -1.439E+00
   1    9   28     2     3    1.0511E+05 -3.3070E+04   1.3818E+05  0.000E+00  0.000E+00  0.000E+00  3.98225E+01  1.975E-01  2.000E+01  2.000E+04 -1.654E+00
   1    9   27     2     4    1.3818E+05 -4.7147E+04   1.8533E+05  0.000E+00  0.000E+00  0.000E+00  3.96094E+01  2.344E-01  2.000E+01  2.000E+04 -2.357E+00
   1   10   26     2     5    1.8533E+05 -3.3089E+04   2.1841E+05  0.000E+00  0.000E+00  0.000E+00  3.93927E+01  2.677E-01  2.000E+01  2.000E+04 -1.654E+00
   1   11   25     2     6    2.1841E+05 -2.4725E+04   2.4314E+05  0.000E+00  0.000E+00  0.000E+00  3.91651E+01  2.901E-01  2.000E+01  2.000E+04 -1.236E+00
   1   12   24     2     7    2.4314E+05 -1.8142E+04   2.6128E+05  0.000E+00  0.000E+00  0.000E+00  3.89309E+01  3.059E-01  2.000E+01  2.000E+04 -9.071E-01
   1   13   23     2     8    2.6128E+05 -1.2749E+04   2.7403E+05  0.000E+00  0.000E+00  0.000E+00  3.86920E+01  3.170E-01  2.000E+01  2.000E+04 -6.374E-01
   1   14   22     2     9    2.7403E+05 -6.8502E+03   2.8088E+05  0.000E+00  0.000E+00  0.000E+00  3.84490E+01  3.240E-01  2.000E+01  2.000E+04 -3.425E-01
   1   14   22     3     1    1.0352E+06 -1.4918E+04   1.0501E+06  0.000E+00  0.000E+00  0.000E+00  3.80456E+01  4.900E-01  2.000E+01  2.000E+04 -7.459E-01
   1   15   23     3     2    1.0501E+06 -2.2588E+04   1.0727E+06  0.000E+00  0.000E+00  0.000E+00  3.71619E+01  4.953E-01  2.000E+01  2.000E+04 -1.129E+00
   1   15   24     3     3    1.0727E+06 -1.9118E+04   1.0919E+06  0.000E+00  0.000E+00  0.000E+00  3.62789E+01  5.011E-01  2.000E+01  2.000E+04 -9.559E-01
   1   15   25     3     4    1.0919E+06 -1.8867E+04   1.1107E+06  0.000E+00  0.000E+00  0.000E+00  3.53952E+01  5.063E-01  2.000E+01  2.000E+04 -9.434E-01
   1   15   26     3     5    1.1107E+06 -2.1677E+04   1.1324E+06  0.000E+00  0.000E+00  0.000E+00  3.45119E+01  5.119E-01  2.000E+01  2.000E+04 -1.084E+00
   1   16   27     3     6    1.1324E+06 -2.8783E+04   1.1612E+06  0.000E+00  0.000E+00  0.000E+00  3.36299E+01  5.188E-01  2.000E+01  2.000E+04 -1.439E+00
   1   17   28     3     7    1.1612E+06 -3.5874E+04   1.1971E+06  0.000E+00  0.000E+00  0.000E+00  3.27497E+01  5.275E-01  2.000E+01  2.000E+04 -1.794E+00
   1   18   29     3     8    1.1971E+06 -4.6926E+04   1.2440E+06  0.000E+00  0.000E+00  0.000E+00  3.18719E+01  5.386E-01  2.000E+01  2.000E+04 -2.346E+00
   1   18   30     3     9    1.2440E+06 -4.3447E+04   1.2874E+06  0.000E+00  0.000E+00  0.000E+00  3.09949E+01  5.504E-01  2.000E+01  2.000E+04 -2.172E+00



1
  VOLUMETRIC BUDGET FOR ENTIRE MODEL AT END OF TIME STEP    1, STRESS PERIOD  11
  ------------------------------------------------------------------------------

     CUMULATIVE VOLUMES      L**3       RATES FOR THIS TIME STEP      L**3/T
     ------------------                 ------------------------

           IN:                                      IN:
           ---                                      ---
             STORAGE =    21198304.0000               STORAGE =        3798.0125
       CONSTANT HEAD =  1157050880.0000         CONSTANT HEAD =     1166367.0000
               WELLS =           0.0000                 WELLS =           0.0000
            RECHARGE =    23901600.0000              RECHARGE =           0.0000
      STREAM LEAKAGE =           0.0000        STREAM LEAKAGE =           0.0000

            TOTAL IN =  1202150784.0000              TOTAL IN =     1170165.0000

          OUT:                                     OUT:
          ----                                     ----
             STORAGE =     1241879.5000               STORAGE =         421.4615
       CONSTANT HEAD =           0.0000         CONSTANT HEAD =           0.0000
               WELLS =    54202680.0000                 WELLS =       32314.6953
            RECHARGE =           0.0000              RECHARGE =           0.0000
      STREAM LEAKAGE =  1146706048.0000        STREAM LEAKAGE =     1137428.3750

           TOTAL OUT =  1202150528.0000             TOTAL OUT =     1170164.6250

            IN - OUT =         256.0000              IN - OUT =           0.3750

 PERCENT DISCREPANCY =           0.00     PERCENT DISCREPANCY =           0.00






         TIME SUMMARY AT END OF TIME STEP    1 IN STRESS PERIOD   11
                    SECONDS     MINUTES      HOURS       DAYS        YEARS
                    -----------------------------------------------------------
   TIME STEP LENGTH 7.86240E+06 1.31040E+05  2184.0      91.000     0.24914    
 STRESS PERIOD TIME 7.86240E+06 1.31040E+05  2184.0      91.000     0.24914    
         TOTAL TIME 8.67456E+07 1.44576E+06  24096.      1004.0      2.7488    
1
1
                            STRESS PERIOD NO.   12, LENGTH =   91.00000    
                            -----------------------------------------------

                              NUMBER OF TIME STEPS =     1

                               MULTIPLIER FOR DELT =     1.500

                            INITIAL TIME STEP SIZE =   91.00000    

 WELL NO.  LAYER   ROW   COL   STRESS RATE         
 --------------------------------------------------
      1      1     12     11       0.000    
      2      1     16     17     -0.3088E+05
      3      1     11     22       0.000    
      4      1     14     25      -7477.    

      4 WELLS

                 RECHARGE =  1.000000E-03

 REUSING STREAM SEGMENT DATA FROM LAST STRESS PERIOD
 
 SOLVING FOR HEAD 


     5 CALLS TO PCG ROUTINE FOR TIME STEP   1 IN STRESS PERIOD   12
    17 TOTAL ITERATIONS

 HEAD/DRAWDOWN PRINTOUT FLAG = 1     TOTAL BUDGET PRINTOUT FLAG = 1
 CELL-BY-CELL FLOW TERM FLAG = 1

 OUTPUT FLAGS FOR ALL LAYERS ARE THE SAME:
   HEAD    DRAWDOWN  HEAD  DRAWDOWN
 PRINTOUT  PRINTOUT  SAVE    SAVE
 ----------------------------------
     0         0       0       0



 STREAM LISTING     PERIOD     12   STEP        1

 LAYER ROW COL. STREAM  RCH.  FLOW INTO     FLOW TO   FLOW OUT OF   OVRLND.     DIRECT     STREAM       STREAM     STREAM     STREAM   STREAMBED  STREAMBED
                SEG.NO.  NO.  STRM. RCH.    AQUIFER    STRM. RCH.    RUNOFF     PRECIP       ET          HEAD       DEPTH      WIDTH   CONDCTNC.   GRADIENT

   1   13    1     1     1    1.0000E+05 -2.7885E+04   1.2789E+05  0.000E+00  0.000E+00  0.000E+00  4.84178E+01  1.564E-01  2.000E+01  2.000E+04 -1.394E+00
   1   13    2     1     2    1.2789E+05 -3.7638E+04   1.6552E+05  0.000E+00  0.000E+00  0.000E+00  4.79661E+01  1.820E-01  2.000E+01  2.000E+04 -1.882E+00
   1   14    3     1     3    1.6552E+05 -3.3107E+04   1.9863E+05  0.000E+00  0.000E+00  0.000E+00  4.75141E+01  2.072E-01  2.000E+01  2.000E+04 -1.655E+00
   1   15    4     1     4    1.9863E+05 -3.2330E+04   2.3096E+05  0.000E+00  0.000E+00  0.000E+00  4.70584E+01  2.288E-01  2.000E+01  2.000E+04 -1.617E+00
   1   16    5     1     5    2.3096E+05 -3.3823E+04   2.6478E+05  0.000E+00  0.000E+00  0.000E+00  4.66017E+01  2.494E-01  2.000E+01  2.000E+04 -1.691E+00
   1   16    6     1     6    2.6478E+05 -2.9538E+04   2.9432E+05  0.000E+00  0.000E+00  0.000E+00  4.61430E+01  2.680E-01  2.000E+01  2.000E+04 -1.477E+00
   1   16    7     1     7    2.9432E+05 -2.9338E+04   3.2366E+05  0.000E+00  0.000E+00  0.000E+00  4.56824E+01  2.846E-01  2.000E+01  2.000E+04 -1.467E+00
   1   16    8     1     8    3.2366E+05 -2.9485E+04   3.5315E+05  0.000E+00  0.000E+00  0.000E+00  4.52211E+01  3.006E-01  2.000E+01  2.000E+04 -1.474E+00
   1   16    9     1     9    3.5315E+05 -2.9501E+04   3.8265E+05  0.000E+00  0.000E+00  0.000E+00  4.47592E+01  3.161E-01  2.000E+01  2.000E+04 -1.475E+00
   1   16   10     1    10    3.8265E+05 -2.9412E+04   4.1206E+05  0.000E+00  0.000E+00  0.000E+00  4.42969E+01  3.310E-01  2.000E+01  2.000E+04 -1.471E+00
   1   16   11     1    11    4.1206E+05 -2.9762E+04   4.4182E+05  0.000E+00  0.000E+00  0.000E+00  4.38342E+01  3.456E-01  2.000E+01  2.000E+04 -1.488E+00
   1   16   12     1    12    4.4182E+05 -3.4492E+04   4.7631E+05  0.000E+00  0.000E+00  0.000E+00  4.33723E+01  3.610E-01  2.000E+01  2.000E+04 -1.725E+00
   1   15   13     1    13    4.7631E+05 -3.2631E+04   5.0894E+05  0.000E+00  0.000E+00  0.000E+00  4.29107E+01  3.766E-01  2.000E+01  2.000E+04 -1.632E+00
   1   14   14     1    14    5.0894E+05 -3.2790E+04   5.4173E+05  0.000E+00  0.000E+00  0.000E+00  4.24482E+01  3.914E-01  2.000E+01  2.000E+04 -1.640E+00
   1   13   15     1    15    5.4173E+05 -3.5200E+04   5.7693E+05  0.000E+00  0.000E+00  0.000E+00  4.19859E+01  4.064E-01  2.000E+01  2.000E+04 -1.760E+00
   1   12   16     1    16    5.7693E+05 -4.2218E+04   6.1915E+05  0.000E+00  0.000E+00  0.000E+00  4.15253E+01  4.230E-01  2.000E+01  2.000E+04 -2.111E+00
   1   12   17     1    17    6.1915E+05 -3.2557E+04   6.5171E+05  0.000E+00  0.000E+00  0.000E+00  4.10637E+01  4.387E-01  2.000E+01  2.000E+04 -1.628E+00
   1   12   18     1    18    6.5171E+05 -3.1053E+04   6.8276E+05  0.000E+00  0.000E+00  0.000E+00  4.05995E+01  4.517E-01  2.000E+01  2.000E+04 -1.553E+00
   1   12   19     1    19    6.8276E+05 -3.5442E+04   7.1820E+05  0.000E+00  0.000E+00  0.000E+00  4.01356E+01  4.651E-01  2.000E+01  2.000E+04 -1.772E+00
   1   13   20     1    20    7.1820E+05 -2.5082E+04   7.4329E+05  0.000E+00  0.000E+00  0.000E+00  3.96703E+01  4.771E-01  2.000E+01  2.000E+04 -1.254E+00
   1   14   21     1    21    7.4329E+05 -1.7993E+04   7.6128E+05  0.000E+00  0.000E+00  0.000E+00  3.92014E+01  4.855E-01  2.000E+01  2.000E+04 -8.997E-01
   1   14   22     1    22    7.6128E+05 -1.3321E+03   7.6261E+05  0.000E+00  0.000E+00  0.000E+00  3.87278E+01  4.892E-01  2.000E+01  2.000E+04 -6.660E-02
   1    9   30     2     1    5.0000E+04 -2.6545E+04   7.6545E+04  0.000E+00  0.000E+00  0.000E+00  4.02584E+01  1.334E-01  2.000E+01  2.000E+04 -1.327E+00
   1    9   29     2     2    7.6545E+04 -2.9009E+04   1.0555E+05  0.000E+00  0.000E+00  0.000E+00  4.00410E+01  1.660E-01  2.000E+01  2.000E+04 -1.450E+00
   1    9   28     2     3    1.0555E+05 -3.3293E+04   1.3885E+05  0.000E+00  0.000E+00  0.000E+00  3.98231E+01  1.981E-01  2.000E+01  2.000E+04 -1.665E+00
   1    9   27     2     4    1.3885E+05 -4.7424E+04   1.8627E+05  0.000E+00  0.000E+00  0.000E+00  3.96101E+01  2.351E-01  2.000E+01  2.000E+04 -2.371E+00
   1   10   26     2     5    1.8627E+05 -3.3271E+04   2.1954E+05  0.000E+00  0.000E+00  0.000E+00  3.93935E+01  2.685E-01  2.000E+01  2.000E+04 -1.664E+00
   1   11   25     2     6    2.1954E+05 -2.4681E+04   2.4422E+05  0.000E+00  0.000E+00  0.000E+00  3.91659E+01  2.909E-01  2.000E+01  2.000E+04 -1.234E+00
   1   12   24     2     7    2.4422E+05 -1.7848E+04   2.6207E+05  0.000E+00  0.000E+00  0.000E+00  3.89316E+01  3.066E-01  2.000E+01  2.000E+04 -8.924E-01
   1   13   23     2     8    2.6207E+05 -1.2494E+04   2.7457E+05  0.000E+00  0.000E+00  0.000E+00  3.86925E+01  3.175E-01  2.000E+01  2.000E+04 -6.247E-01
   1   14   22     2     9    2.7457E+05 -6.9016E+03   2.8147E+05  0.000E+00  0.000E+00  0.000E+00  3.84494E+01  3.244E-01  2.000E+01  2.000E+04 -3.451E-01
   1   14   22     3     1    1.0441E+06 -1.4928E+04   1.0590E+06  0.000E+00  0.000E+00  0.000E+00  3.80480E+01  4.925E-01  2.000E+01  2.000E+04 -7.464E-01
   1   15   23     3     2    1.0590E+06 -2.2560E+04   1.0816E+06  0.000E+00  0.000E+00  0.000E+00  3.71644E+01  4.977E-01  2.000E+01  2.000E+04 -1.128E+00
   1   15   24     3     3    1.0816E+06 -1.8562E+04   1.1001E+06  0.000E+00  0.000E+00  0.000E+00  3.62812E+01  5.035E-01  2.000E+01  2.000E+04 -9.281E-01
   1   15   25     3     4    1.1001E+06 -1.7426E+04   1.1176E+06  0.000E+00  0.000E+00  0.000E+00  3.53973E+01  5.084E-01  2.000E+01  2.000E+04 -8.713E-01
   1   15   26     3     5    1.1176E+06 -2.1021E+04   1.1386E+06  0.000E+00  0.000E+00  0.000E+00  3.45137E+01  5.137E-01  2.000E+01  2.000E+04 -1.051E+00
   1   16   27     3     6    1.1386E+06 -2.8832E+04   1.1674E+06  0.000E+00  0.000E+00  0.000E+00  3.36316E+01  5.205E-01  2.000E+01  2.000E+04 -1.442E+00
   1   17   28     3     7    1.1674E+06 -3.6094E+04   1.2035E+06  0.000E+00  0.000E+00  0.000E+00  3.27514E+01  5.292E-01  2.000E+01  2.000E+04 -1.805E+00
   1   18   29     3     8    1.2035E+06 -4.7192E+04   1.2507E+06  0.000E+00  0.000E+00  0.000E+00  3.18736E+01  5.403E-01  2.000E+01  2.000E+04 -2.360E+00
   1   18   30     3     9    1.2507E+06 -4.3669E+04   1.2944E+06  0.000E+00  0.000E+00  0.000E+00  3.09967E+01  5.522E-01  2.000E+01  2.000E+04 -2.183E+00



1
  VOLUMETRIC BUDGET FOR ENTIRE MODEL AT END OF TIME STEP    1, STRESS PERIOD  12
  ------------------------------------------------------------------------------

     CUMULATIVE VOLUMES      L**3       RATES FOR THIS TIME STEP      L**3/T
     ------------------                 ------------------------

           IN:                                      IN:
           ---                                      ---
             STORAGE =    21201796.0000               STORAGE =          38.3642
       CONSTANT HEAD =  1262264320.0000         CONSTANT HEAD =     1156192.2500
               WELLS =           0.0000                 WELLS =           0.0000
            RECHARGE =    26413200.0000              RECHARGE =       27600.0000
      STREAM LEAKAGE =           0.0000        STREAM LEAKAGE =           0.0000

            TOTAL IN =  1309879296.0000              TOTAL IN =     1183830.6250

          OUT:                                     OUT:
          ----                                     ----
             STORAGE =     1342840.7500               STORAGE =        1109.4646
       CONSTANT HEAD =           0.0000         CONSTANT HEAD =           0.0000
               WELLS =    57693064.0000                 WELLS =       38355.8789
            RECHARGE =           0.0000              RECHARGE =           0.0000
      STREAM LEAKAGE =  1250843136.0000        STREAM LEAKAGE =     1144364.2500

           TOTAL OUT =  1309879040.0000             TOTAL OUT =     1183829.6250

            IN - OUT =         256.0000              IN - OUT =           1.0000

 PERCENT DISCREPANCY =           0.00     PERCENT DISCREPANCY =           0.00






         TIME SUMMARY AT END OF TIME STEP    1 IN STRESS PERIOD   12
                    SECONDS     MINUTES      HOURS       DAYS        YEARS
                    -----------------------------------------------------------
   TIME STEP LENGTH 7.86240E+06 1.31040E+05  2184.0      91.000     0.24914    
 STRESS PERIOD TIME 7.86240E+06 1.31040E+05  2184.0      91.000     0.24914    
         TOTAL TIME 9.46080E+07 1.57680E+06  26280.      1095.0      2.9979    
1

 Run end date and time (yyyy/mm/dd hh:mm:ss): 2016/09/20 13:05:37
 Elapsed run time:  0.093 Seconds

